MODEL 1
REMARK VINA RESULT:       0.0      0.000      0.000
REMARK  17 active torsions:
REMARK  status: ('A' for Active; 'I' for Inactive)
REMARK    1  A    between atoms: C01_1  and  C23_41 
REMARK    2  A    between atoms: C07_12  and  C13_24 
REMARK    3  A    between atoms: C13_24  and  O14_27 
REMARK    4  A    between atoms: O14_27  and  C15_28 
REMARK    5  A    between atoms: C15_28  and  C16_30 
REMARK    6  A    between atoms: C15_28  and  C26_48 
REMARK    7  A    between atoms: C16_30  and  C17_32 
REMARK    8  A    between atoms: C16_30  and  O25_46 
REMARK    9  A    between atoms: C17_32  and  C18_34 
REMARK   10  A    between atoms: C17_32  and  O24_44 
REMARK   11  A    between atoms: C18_34  and  C19_36 
REMARK   12  A    between atoms: C18_34  and  O22_40 
REMARK       I    between atoms: C19_36  and  N21_38 
REMARK   13  A    between atoms: N21_38  and  C39_75 
REMARK   14  A    between atoms: O22_40  and  C23_41 
REMARK       I    between atoms: C26_48  and  N28_50 
REMARK   15  A    between atoms: N28_50  and  C29_52 
REMARK   16  A    between atoms: C35_65  and  O36_67 
REMARK   17  A    between atoms: C45_88  and  O46_90 
ROOT
HETATM    1  C01 BE5 A 501       8.015  29.252   7.152  1.00 24.49     0.003 A 
HETATM    2  C02 BE5 A 501       9.114  29.692   8.031  1.00 24.30    -0.014 A 
HETATM    3  C03 BE5 A 501       8.984  30.828   8.924  1.00 26.88     0.035 A 
HETATM    4  C04 BE5 A 501       7.726  31.589   8.982  1.00 26.55     0.077 A 
HETATM    5  C05 BE5 A 501       6.599  31.177   8.117  1.00 25.99     0.133 A 
HETATM    6  C06 BE5 A 501       6.745  30.035   7.224  1.00 25.99     0.158 A 
HETATM    7  F50 BE5 A 501       5.332  31.916   8.156  1.00 29.63    -0.208 F 
HETATM    8  F51 BE5 A 501       5.609  29.578   6.323  1.00 27.35    -0.203 F 
ENDROOT
BRANCH   1   9
HETATM    9  C23 BE5 A 501       8.278  28.032   6.257  1.00 23.01     0.210 C 
BRANCH   9  10
HETATM   10  O22 BE5 A 501       8.950  28.476   5.036  1.00 22.02    -0.369 OA
BRANCH  10  11
HETATM   11  C18 BE5 A 501       8.227  28.457   3.730  1.00 18.95     0.244 C 
BRANCH  11  12
HETATM   12  C17 BE5 A 501       9.203  28.193   2.501  1.00 20.08     0.188 C 
BRANCH  12  13
HETATM   13  C16 BE5 A 501      10.467  27.706   3.039  1.00 20.53     0.188 C 
BRANCH  13  14
HETATM   14  C15 BE5 A 501      11.601  28.641   2.721  1.00 18.51     0.244 C 
BRANCH  14  15
HETATM   15  O14 BE5 A 501      11.152  30.096   2.553  1.00 19.29    -0.369 OA
BRANCH  15  16
HETATM   16  C13 BE5 A 501      12.003  31.058   1.849  1.00 21.08     0.206 C 
BRANCH  16  17
HETATM   17  C07 BE5 A 501      12.674  31.997   2.844  1.00 21.04    -0.015 A 
HETATM   18  C08 BE5 A 501      14.062  31.818   3.312  1.00 23.02     0.155 A 
HETATM   19  C09 BE5 A 501      14.651  32.790   4.282  1.00 21.73     0.132 A 
HETATM   20  F52 BE5 A 501      14.874  30.674   2.815  1.00 24.30    -0.203 F 
HETATM   21  C10 BE5 A 501      13.821  33.939   4.773  1.00 24.35     0.073 A 
HETATM   22  F49 BE5 A 501      16.023  32.615   4.741  1.00 27.68    -0.208 F 
HETATM   23  C11 BE5 A 501      12.419  34.080   4.272  1.00 23.62     0.011 A 
HETATM   24  C12 BE5 A 501      11.885  33.126   3.335  1.00 22.67     0.040 A 
ENDBRANCH  16  17
ENDBRANCH  15  16
ENDBRANCH  14  15
BRANCH  14  25
HETATM   25  C26 BE5 A 501      12.547  28.502   3.845  1.00 16.79     0.250 C 
HETATM   26  O27 BE5 A 501      13.657  27.940   3.660  1.00 20.11    -0.271 OA
HETATM   27  N28 BE5 A 501      12.198  28.995   5.061  1.00 15.99    -0.348 N 
HETATM   28  H28 BE5 A 501      11.292  29.448   5.175  1.00  0.00     0.163 HD
BRANCH  27  29
HETATM   29  C29 BE5 A 501      13.087  28.891   6.200  1.00 16.00     0.143 C 
HETATM   30  C30 BE5 A 501      12.819  30.012   7.154  1.00 16.23    -0.052 A 
HETATM   31  C31 BE5 A 501      13.081  29.564   8.524  1.00 17.03    -0.073 A 
HETATM   32  C32 BE5 A 501      12.355  31.396   6.892  1.00 16.86     0.036 A 
HETATM   33  C37 BE5 A 501      12.895  30.467   9.672  1.00 17.71     0.034 A 
HETATM   34  C38 BE5 A 501      13.527  28.153   8.492  1.00 16.65     0.068 C 
HETATM   35  C34 BE5 A 501      12.433  31.845   9.413  1.00 19.35     0.005 A 
HETATM   36  C33 BE5 A 501      12.159  32.327   8.048  1.00 18.24     0.005 A 
HETATM   37  C35 BE5 A 501      12.902  27.675   7.148  1.00 16.83     0.149 C 
BRANCH  37  38
HETATM   38  O36 BE5 A 501      11.481  27.400   7.211  1.00 14.03    -0.393 OA
HETATM   39  H36 BE5 A 501      11.364  26.684   7.825  1.00  0.00     0.210 HD
ENDBRANCH  37  38
ENDBRANCH  27  29
ENDBRANCH  14  25
ENDBRANCH  13  14
BRANCH  13  40
HETATM   40  O25 BE5 A 501      10.779  26.391   2.420  1.00 21.98    -0.390 OA
HETATM   41  H25 BE5 A 501      10.443  25.715   2.996  1.00  0.00     0.210 HD
ENDBRANCH  13  40
ENDBRANCH  12  13
BRANCH  12  42
HETATM   42  O24 BE5 A 501       8.650  27.194   1.603  1.00 17.11    -0.390 OA
HETATM   43  H24 BE5 A 501       9.277  26.488   1.498  1.00  0.00     0.210 HD
ENDBRANCH  12  42
ENDBRANCH  11  12
BRANCH  11  44
HETATM   44  C19 BE5 A 501       7.465  29.763   3.576  1.00 17.37     0.250 C 
HETATM   45  O20 BE5 A 501       6.251  29.769   3.252  1.00 18.21    -0.271 OA
HETATM   46  N21 BE5 A 501       8.150  30.926   3.778  1.00 14.53    -0.348 N 
HETATM   47  H21 BE5 A 501       9.136  30.868   4.033  1.00  0.00     0.163 HD
BRANCH  46  48
HETATM   48  C39 BE5 A 501       7.553  32.234   3.650  1.00 14.05     0.143 C 
HETATM   49  C40 BE5 A 501       8.261  33.271   4.511  1.00 15.79    -0.052 A 
HETATM   50  C41 BE5 A 501       8.363  34.526   3.785  1.00 16.99    -0.073 A 
HETATM   51  C42 BE5 A 501       8.810  33.152   5.871  1.00 16.33     0.036 A 
HETATM   52  C47 BE5 A 501       9.011  35.714   4.375  1.00 17.22     0.034 A 
HETATM   53  C48 BE5 A 501       7.723  34.350   2.441  1.00 15.28     0.068 C 
HETATM   54  C44 BE5 A 501       9.555  35.588   5.729  1.00 17.66     0.005 A 
HETATM   55  C43 BE5 A 501       9.472  34.339   6.494  1.00 18.87     0.005 A 
HETATM   56  C45 BE5 A 501       7.749  32.826   2.228  1.00 13.23     0.149 C 
BRANCH  56  57
HETATM   57  O46 BE5 A 501       9.013  32.330   1.715  1.00 13.13    -0.393 OA
HETATM   58  H46 BE5 A 501       9.547  33.082   1.491  1.00  0.00     0.210 HD
ENDBRANCH  56  57
ENDBRANCH  46  48
ENDBRANCH  11  44
ENDBRANCH  10  11
ENDBRANCH   9  10
ENDBRANCH   1   9
TORSDOF 17
ENDMDL
MODEL 2
REMARK VINA RESULT:       0.1      5.403      9.704
REMARK  17 active torsions:
REMARK  status: ('A' for Active; 'I' for Inactive)
REMARK    1  A    between atoms: C01_1  and  C23_41 
REMARK    2  A    between atoms: C07_12  and  C13_24 
REMARK    3  A    between atoms: C13_24  and  O14_27 
REMARK    4  A    between atoms: O14_27  and  C15_28 
REMARK    5  A    between atoms: C15_28  and  C16_30 
REMARK    6  A    between atoms: C15_28  and  C26_48 
REMARK    7  A    between atoms: C16_30  and  C17_32 
REMARK    8  A    between atoms: C16_30  and  O25_46 
REMARK    9  A    between atoms: C17_32  and  C18_34 
REMARK   10  A    between atoms: C17_32  and  O24_44 
REMARK   11  A    between atoms: C18_34  and  C19_36 
REMARK   12  A    between atoms: C18_34  and  O22_40 
REMARK       I    between atoms: C19_36  and  N21_38 
REMARK   13  A    between atoms: N21_38  and  C39_75 
REMARK   14  A    between atoms: O22_40  and  C23_41 
REMARK       I    between atoms: C26_48  and  N28_50 
REMARK   15  A    between atoms: N28_50  and  C29_52 
REMARK   16  A    between atoms: C35_65  and  O36_67 
REMARK   17  A    between atoms: C45_88  and  O46_90 
ROOT
HETATM    1  C01 BE5 A 501       7.955  33.027  -1.301  1.00 24.49     0.003 A 
HETATM    2  C02 BE5 A 501       9.120  32.734  -2.156  1.00 24.30    -0.014 A 
HETATM    3  C03 BE5 A 501       9.072  32.859  -3.600  1.00 26.88     0.035 A 
HETATM    4  C04 BE5 A 501       7.835  33.294  -4.268  1.00 26.55     0.077 A 
HETATM    5  C05 BE5 A 501       6.645  33.600  -3.444  1.00 25.99     0.133 A 
HETATM    6  C06 BE5 A 501       6.708  33.468  -1.995  1.00 25.99     0.158 A 
HETATM    7  F50 BE5 A 501       5.399  34.038  -4.084  1.00 29.63    -0.208 F 
HETATM    8  F51 BE5 A 501       5.509  33.776  -1.114  1.00 27.35    -0.203 F 
ENDROOT
BRANCH   1   9
HETATM    9  C23 BE5 A 501       8.137  32.859   0.215  1.00 23.01     0.210 C 
BRANCH   9  10
HETATM   10  O22 BE5 A 501       7.224  31.820   0.690  1.00 22.02    -0.369 OA
BRANCH  10  11
HETATM   11  C18 BE5 A 501       6.254  32.115   1.786  1.00 18.95     0.244 C 
BRANCH  11  12
HETATM   12  C17 BE5 A 501       6.633  31.378   3.145  1.00 20.08     0.188 C 
BRANCH  12  13
HETATM   13  C16 BE5 A 501       7.726  30.458   2.857  1.00 20.53     0.188 C 
BRANCH  13  14
HETATM   14  C15 BE5 A 501       7.290  29.024   2.984  1.00 18.51     0.244 C 
BRANCH  14  15
HETATM   15  O14 BE5 A 501       5.767  28.856   2.982  1.00 19.29    -0.369 OA
BRANCH  15  16
HETATM   16  C13 BE5 A 501       5.094  28.193   4.102  1.00 21.08     0.206 C 
BRANCH  16  17
HETATM   17  C07 BE5 A 501       3.581  28.263   3.925  1.00 21.04    -0.015 A 
HETATM   18  C08 BE5 A 501       2.822  29.527   3.966  1.00 23.02     0.155 A 
HETATM   19  C09 BE5 A 501       1.340  29.512   3.774  1.00 21.73     0.132 A 
HETATM   20  F52 BE5 A 501       3.531  30.815   4.196  1.00 24.30    -0.203 F 
HETATM   21  C10 BE5 A 501       0.639  28.206   3.543  1.00 24.35     0.073 A 
HETATM   22  F49 BE5 A 501       0.592  30.762   3.812  1.00 27.68    -0.208 F 
HETATM   23  C11 BE5 A 501       1.449  26.950   3.509  1.00 23.62     0.011 A 
HETATM   24  C12 BE5 A 501       2.876  27.003   3.695  1.00 22.67     0.040 A 
ENDBRANCH  16  17
ENDBRANCH  15  16
ENDBRANCH  14  15
BRANCH  14  25
HETATM   25  C26 BE5 A 501       7.903  28.328   1.836  1.00 16.79     0.250 C 
HETATM   26  O27 BE5 A 501       7.763  27.084   1.715  1.00 20.11    -0.271 OA
HETATM   27  N28 BE5 A 501       8.604  29.052   0.927  1.00 15.99    -0.348 N 
HETATM   28  H28 BE5 A 501       8.695  30.060   1.055  1.00  0.00     0.163 HD
BRANCH  27  29
HETATM   29  C29 BE5 A 501       9.226  28.425  -0.221  1.00 16.00     0.143 C 
HETATM   30  C30 BE5 A 501       8.518  28.843  -1.470  1.00 16.23    -0.052 A 
HETATM   31  C31 BE5 A 501       9.470  28.887  -2.582  1.00 17.03    -0.073 A 
HETATM   32  C32 BE5 A 501       7.092  29.189  -1.688  1.00 16.86     0.036 A 
HETATM   33  C37 BE5 A 501       9.044  29.274  -3.939  1.00 17.71     0.034 A 
HETATM   34  C38 BE5 A 501      10.808  28.498  -2.086  1.00 16.65     0.068 C 
HETATM   35  C34 BE5 A 501       7.626  29.620  -4.156  1.00 19.35     0.005 A 
HETATM   36  C33 BE5 A 501       6.643  29.586  -3.060  1.00 18.24     0.005 A 
HETATM   37  C35 BE5 A 501      10.677  28.848  -0.574  1.00 16.83     0.149 C 
BRANCH  37  38
HETATM   38  O36 BE5 A 501      10.792  30.260  -0.273  1.00 14.03    -0.393 OA
HETATM   39  H36 BE5 A 501      11.672  30.525  -0.514  1.00  0.00     0.210 HD
ENDBRANCH  37  38
ENDBRANCH  27  29
ENDBRANCH  14  25
ENDBRANCH  13  14
BRANCH  13  40
HETATM   40  O25 BE5 A 501       8.818  30.685   3.839  1.00 21.98    -0.390 OA
HETATM   41  H25 BE5 A 501       9.070  29.840   4.190  1.00  0.00     0.210 HD
ENDBRANCH  13  40
ENDBRANCH  12  13
BRANCH  12  42
HETATM   42  O24 BE5 A 501       7.065  32.332   4.151  1.00 17.11    -0.390 OA
HETATM   43  H24 BE5 A 501       7.779  32.853   3.801  1.00  0.00     0.210 HD
ENDBRANCH  12  42
ENDBRANCH  11  12
BRANCH  11  44
HETATM   44  C19 BE5 A 501       4.858  31.745   1.313  1.00 17.37     0.250 C 
HETATM   45  O20 BE5 A 501       3.891  32.532   1.473  1.00 18.21    -0.271 OA
HETATM   46  N21 BE5 A 501       4.687  30.522   0.731  1.00 14.53    -0.348 N 
HETATM   47  H21 BE5 A 501       5.502  29.917   0.630  1.00  0.00     0.163 HD
BRANCH  46  48
HETATM   48  C39 BE5 A 501       3.413  30.040   0.252  1.00 14.05     0.143 C 
HETATM   49  C40 BE5 A 501       3.273  30.203  -1.256  1.00 15.79    -0.052 A 
HETATM   50  C41 BE5 A 501       2.612  29.038  -1.816  1.00 16.99    -0.073 A 
HETATM   51  C42 BE5 A 501       3.701  31.307  -2.129  1.00 16.33     0.036 A 
HETATM   52  C47 BE5 A 501       2.345  28.917  -3.264  1.00 17.22     0.034 A 
HETATM   53  C48 BE5 A 501       2.296  28.087  -0.700  1.00 15.28     0.068 C 
HETATM   54  C44 BE5 A 501       2.773  30.020  -4.126  1.00 17.66     0.005 A 
HETATM   55  C43 BE5 A 501       3.444  31.213  -3.599  1.00 18.87     0.005 A 
HETATM   56  C45 BE5 A 501       3.276  28.502   0.411  1.00 13.23     0.149 C 
BRANCH  56  57
HETATM   57  O46 BE5 A 501       4.600  27.925   0.266  1.00 13.13    -0.393 OA
HETATM   58  H46 BE5 A 501       4.695  27.252   0.929  1.00  0.00     0.210 HD
ENDBRANCH  56  57
ENDBRANCH  46  48
ENDBRANCH  11  44
ENDBRANCH  10  11
ENDBRANCH   9  10
ENDBRANCH   1   9
TORSDOF 17
ENDMDL
MODEL 3
REMARK VINA RESULT:       0.1      7.625     11.660
REMARK  17 active torsions:
REMARK  status: ('A' for Active; 'I' for Inactive)
REMARK    1  A    between atoms: C01_1  and  C23_41 
REMARK    2  A    between atoms: C07_12  and  C13_24 
REMARK    3  A    between atoms: C13_24  and  O14_27 
REMARK    4  A    between atoms: O14_27  and  C15_28 
REMARK    5  A    between atoms: C15_28  and  C16_30 
REMARK    6  A    between atoms: C15_28  and  C26_48 
REMARK    7  A    between atoms: C16_30  and  C17_32 
REMARK    8  A    between atoms: C16_30  and  O25_46 
REMARK    9  A    between atoms: C17_32  and  C18_34 
REMARK   10  A    between atoms: C17_32  and  O24_44 
REMARK   11  A    between atoms: C18_34  and  C19_36 
REMARK   12  A    between atoms: C18_34  and  O22_40 
REMARK       I    between atoms: C19_36  and  N21_38 
REMARK   13  A    between atoms: N21_38  and  C39_75 
REMARK   14  A    between atoms: O22_40  and  C23_41 
REMARK       I    between atoms: C26_48  and  N28_50 
REMARK   15  A    between atoms: N28_50  and  C29_52 
REMARK   16  A    between atoms: C35_65  and  O36_67 
REMARK   17  A    between atoms: C45_88  and  O46_90 
ROOT
HETATM    1  C01 BE5 A 501      13.472  28.553  -0.760  1.00 24.49     0.003 A 
HETATM    2  C02 BE5 A 501      12.543  29.673  -0.521  1.00 24.30    -0.014 A 
HETATM    3  C03 BE5 A 501      11.832  29.836   0.733  1.00 26.88     0.035 A 
HETATM    4  C04 BE5 A 501      12.022  28.871   1.827  1.00 26.55     0.077 A 
HETATM    5  C05 BE5 A 501      12.947  27.734   1.627  1.00 25.99     0.133 A 
HETATM    6  C06 BE5 A 501      13.653  27.583   0.361  1.00 25.99     0.158 A 
HETATM    7  F50 BE5 A 501      13.157  26.757   2.702  1.00 29.63    -0.208 F 
HETATM    8  F51 BE5 A 501      14.615  26.431   0.119  1.00 27.35    -0.203 F 
ENDROOT
BRANCH   1   9
HETATM    9  C23 BE5 A 501      14.166  28.495  -2.129  1.00 23.01     0.210 C 
BRANCH   9  10
HETATM   10  O22 BE5 A 501      13.783  27.256  -2.803  1.00 22.02    -0.369 OA
BRANCH  10  11
HETATM   11  C18 BE5 A 501      14.830  26.318  -3.305  1.00 18.95     0.244 C 
BRANCH  11  12
HETATM   12  C17 BE5 A 501      14.925  26.309  -4.893  1.00 20.08     0.188 C 
BRANCH  12  13
HETATM   13  C16 BE5 A 501      13.803  27.085  -5.405  1.00 20.53     0.188 C 
BRANCH  13  14
HETATM   14  C15 BE5 A 501      12.814  26.215  -6.130  1.00 18.51     0.244 C 
BRANCH  14  15
HETATM   15  O14 BE5 A 501      12.986  24.724  -5.823  1.00 19.29    -0.369 OA
BRANCH  15  16
HETATM   16  C13 BE5 A 501      13.204  23.765  -6.908  1.00 21.08     0.206 C 
BRANCH  16  17
HETATM   17  C07 BE5 A 501      13.465  22.375  -6.340  1.00 21.04    -0.015 A 
HETATM   18  C08 BE5 A 501      14.657  22.043  -5.536  1.00 23.02     0.155 A 
HETATM   19  C09 BE5 A 501      14.835  20.657  -5.006  1.00 21.73     0.132 A 
HETATM   20  F52 BE5 A 501      15.677  23.088  -5.250  1.00 24.30    -0.203 F 
HETATM   21  C10 BE5 A 501      13.797  19.614  -5.301  1.00 24.35     0.073 A 
HETATM   22  F49 BE5 A 501      16.010  20.332  -4.208  1.00 27.68    -0.208 F 
HETATM   23  C11 BE5 A 501      12.607  19.996  -6.121  1.00 23.62     0.011 A 
HETATM   24  C12 BE5 A 501      12.466  21.342  -6.612  1.00 22.67     0.040 A 
ENDBRANCH  16  17
ENDBRANCH  15  16
ENDBRANCH  14  15
BRANCH  14  25
HETATM   25  C26 BE5 A 501      11.485  26.697  -5.702  1.00 16.79     0.250 C 
HETATM   26  O27 BE5 A 501      10.449  26.197  -6.210  1.00 20.11    -0.271 OA
HETATM   27  N28 BE5 A 501      11.413  27.671  -4.759  1.00 15.99    -0.348 N 
HETATM   28  H28 BE5 A 501      12.274  28.051  -4.368  1.00  0.00     0.163 HD
BRANCH  27  29
HETATM   29  C29 BE5 A 501      10.138  28.181  -4.298  1.00 16.00     0.143 C 
HETATM   30  C30 BE5 A 501       9.917  27.777  -2.876  1.00 16.23    -0.052 A 
HETATM   31  C31 BE5 A 501       9.134  28.807  -2.189  1.00 17.03    -0.073 A 
HETATM   32  C32 BE5 A 501      10.365  26.565  -2.149  1.00 16.86     0.036 A 
HETATM   33  C37 BE5 A 501       8.770  28.671  -0.768  1.00 17.71     0.034 A 
HETATM   34  C38 BE5 A 501       8.826  29.894  -3.144  1.00 16.65     0.068 C 
HETATM   35  C34 BE5 A 501       9.216  27.465  -0.043  1.00 19.35     0.005 A 
HETATM   36  C33 BE5 A 501      10.005  26.410  -0.703  1.00 18.24     0.005 A 
HETATM   37  C35 BE5 A 501       9.983  29.720  -4.173  1.00 16.83     0.149 C 
BRANCH  37  38
HETATM   38  O36 BE5 A 501      11.261  30.241  -3.734  1.00 14.03    -0.393 OA
HETATM   39  H36 BE5 A 501      11.115  31.139  -3.457  1.00  0.00     0.210 HD
ENDBRANCH  37  38
ENDBRANCH  27  29
ENDBRANCH  14  25
ENDBRANCH  13  14
BRANCH  13  40
HETATM   40  O25 BE5 A 501      14.315  28.090  -6.375  1.00 21.98    -0.390 OA
HETATM   41  H25 BE5 A 501      13.619  28.272  -6.995  1.00  0.00     0.210 HD
ENDBRANCH  13  40
ENDBRANCH  12  13
BRANCH  12  42
HETATM   42  O24 BE5 A 501      16.168  26.912  -5.343  1.00 17.11    -0.390 OA
HETATM   43  H24 BE5 A 501      16.900  26.428  -4.977  1.00  0.00     0.210 HD
ENDBRANCH  12  42
ENDBRANCH  11  12
BRANCH  11  44
HETATM   44  C19 BE5 A 501      14.550  24.932  -2.748  1.00 17.37     0.250 C 
HETATM   45  O20 BE5 A 501      15.467  24.244  -2.230  1.00 18.21    -0.271 OA
HETATM   46  N21 BE5 A 501      13.277  24.451  -2.850  1.00 14.53    -0.348 N 
HETATM   47  H21 BE5 A 501      12.569  25.045  -3.284  1.00  0.00     0.163 HD
BRANCH  46  48
HETATM   48  C39 BE5 A 501      12.878  23.147  -2.376  1.00 14.05     0.143 C 
HETATM   49  C40 BE5 A 501      12.195  23.219  -1.017  1.00 15.79    -0.052 A 
HETATM   50  C41 BE5 A 501      11.078  22.291  -0.979  1.00 16.99    -0.073 A 
HETATM   51  C42 BE5 A 501      12.509  24.053   0.154  1.00 16.33     0.036 A 
HETATM   52  C47 BE5 A 501      10.225  22.150   0.219  1.00 17.22     0.034 A 
HETATM   53  C48 BE5 A 501      11.001  21.586  -2.300  1.00 15.28     0.068 C 
HETATM   54  C44 BE5 A 501      10.545  22.983   1.380  1.00 17.66     0.005 A 
HETATM   55  C43 BE5 A 501      11.663  23.931   1.381  1.00 18.87     0.005 A 
HETATM   56  C45 BE5 A 501      11.757  22.527  -3.253  1.00 13.23     0.149 C 
BRANCH  56  57
HETATM   57  O46 BE5 A 501      10.945  23.616  -3.764  1.00 13.13    -0.393 OA
HETATM   58  H46 BE5 A 501      10.555  24.059  -3.019  1.00  0.00     0.210 HD
ENDBRANCH  56  57
ENDBRANCH  46  48
ENDBRANCH  11  44
ENDBRANCH  10  11
ENDBRANCH   9  10
ENDBRANCH   1   9
TORSDOF 17
ENDMDL
MODEL 4
REMARK VINA RESULT:       0.1      5.917     10.259
REMARK  17 active torsions:
REMARK  status: ('A' for Active; 'I' for Inactive)
REMARK    1  A    between atoms: C01_1  and  C23_41 
REMARK    2  A    between atoms: C07_12  and  C13_24 
REMARK    3  A    between atoms: C13_24  and  O14_27 
REMARK    4  A    between atoms: O14_27  and  C15_28 
REMARK    5  A    between atoms: C15_28  and  C16_30 
REMARK    6  A    between atoms: C15_28  and  C26_48 
REMARK    7  A    between atoms: C16_30  and  C17_32 
REMARK    8  A    between atoms: C16_30  and  O25_46 
REMARK    9  A    between atoms: C17_32  and  C18_34 
REMARK   10  A    between atoms: C17_32  and  O24_44 
REMARK   11  A    between atoms: C18_34  and  C19_36 
REMARK   12  A    between atoms: C18_34  and  O22_40 
REMARK       I    between atoms: C19_36  and  N21_38 
REMARK   13  A    between atoms: N21_38  and  C39_75 
REMARK   14  A    between atoms: O22_40  and  C23_41 
REMARK       I    between atoms: C26_48  and  N28_50 
REMARK   15  A    between atoms: N28_50  and  C29_52 
REMARK   16  A    between atoms: C35_65  and  O36_67 
REMARK   17  A    between atoms: C45_88  and  O46_90 
ROOT
HETATM    1  C01 BE5 A 501      12.067  30.212  -3.608  1.00 24.49     0.003 A 
HETATM    2  C02 BE5 A 501      13.126  29.468  -4.315  1.00 24.30    -0.014 A 
HETATM    3  C03 BE5 A 501      13.172  29.376  -5.762  1.00 26.88     0.035 A 
HETATM    4  C04 BE5 A 501      12.146  30.037  -6.584  1.00 26.55     0.077 A 
HETATM    5  C05 BE5 A 501      11.068  30.795  -5.911  1.00 25.99     0.133 A 
HETATM    6  C06 BE5 A 501      11.034  30.877  -4.457  1.00 25.99     0.158 A 
HETATM    7  F50 BE5 A 501      10.033  31.467  -6.705  1.00 29.63    -0.208 F 
HETATM    8  F51 BE5 A 501       9.946  31.650  -3.728  1.00 27.35    -0.203 F 
ENDROOT
BRANCH   1   9
HETATM    9  C23 BE5 A 501      12.132  30.237  -2.073  1.00 23.01     0.210 C 
BRANCH   9  10
HETATM   10  O22 BE5 A 501      10.924  29.612  -1.537  1.00 22.02    -0.369 OA
BRANCH  10  11
HETATM   11  C18 BE5 A 501      10.070  30.345  -0.556  1.00 18.95     0.244 C 
BRANCH  11  12
HETATM   12  C17 BE5 A 501      10.171  29.734   0.910  1.00 20.08     0.188 C 
BRANCH  12  13
HETATM   13  C16 BE5 A 501      10.927  28.492   0.818  1.00 20.53     0.188 C 
BRANCH  13  14
HETATM   14  C15 BE5 A 501      10.063  27.296   1.107  1.00 18.51     0.244 C 
BRANCH  14  15
HETATM   15  O14 BE5 A 501       8.565  27.603   1.026  1.00 19.29    -0.369 OA
BRANCH  15  16
HETATM   16  C13 BE5 A 501       7.690  27.334   2.169  1.00 21.08     0.206 C 
BRANCH  16  17
HETATM   17  C07 BE5 A 501       6.278  27.834   1.885  1.00 21.04    -0.015 A 
HETATM   18  C08 BE5 A 501       5.949  29.262   1.709  1.00 23.02     0.155 A 
HETATM   19  C09 BE5 A 501       4.540  29.670   1.422  1.00 21.73     0.132 A 
HETATM   20  F52 BE5 A 501       7.018  30.292   1.814  1.00 24.30    -0.203 F 
HETATM   21  C10 BE5 A 501       3.473  28.620   1.319  1.00 24.35     0.073 A 
HETATM   22  F49 BE5 A 501       4.216  31.080   1.245  1.00 27.68    -0.208 F 
HETATM   23  C11 BE5 A 501       3.854  27.187   1.505  1.00 23.62     0.011 A 
HETATM   24  C12 BE5 A 501       5.222  26.829   1.777  1.00 22.67     0.040 A 
ENDBRANCH  16  17
ENDBRANCH  15  16
ENDBRANCH  14  15
BRANCH  14  25
HETATM   25  C26 BE5 A 501      10.454  26.283   0.106  1.00 16.79     0.250 C 
HETATM   26  O27 BE5 A 501       9.942  25.135   0.149  1.00 20.11    -0.271 OA
HETATM   27  N28 BE5 A 501      11.358  26.619  -0.849  1.00 15.99    -0.348 N 
HETATM   28  H28 BE5 A 501      11.750  27.561  -0.856  1.00  0.00     0.163 HD
BRANCH  27  29
HETATM   29  C29 BE5 A 501      11.777  25.669  -1.859  1.00 16.00     0.143 C 
HETATM   30  C30 BE5 A 501      11.270  26.099  -3.198  1.00 16.23    -0.052 A 
HETATM   31  C31 BE5 A 501      12.216  25.683  -4.237  1.00 17.03    -0.073 A 
HETATM   32  C32 BE5 A 501      10.034  26.835  -3.559  1.00 16.86     0.036 A 
HETATM   33  C37 BE5 A 501      11.969  25.980  -5.659  1.00 17.71     0.034 A 
HETATM   34  C38 BE5 A 501      13.348  24.974  -3.602  1.00 16.65     0.068 C 
HETATM   35  C34 BE5 A 501      10.740  26.713  -6.019  1.00 19.35     0.005 A 
HETATM   36  C33 BE5 A 501       9.768  27.146  -4.999  1.00 18.24     0.005 A 
HETATM   37  C35 BE5 A 501      13.296  25.565  -2.161  1.00 16.83     0.149 C 
BRANCH  37  38
HETATM   38  O36 BE5 A 501      13.845  26.900  -2.040  1.00 14.03    -0.393 OA
HETATM   39  H36 BE5 A 501      13.496  27.410  -2.761  1.00  0.00     0.210 HD
ENDBRANCH  37  38
ENDBRANCH  27  29
ENDBRANCH  14  25
ENDBRANCH  13  14
BRANCH  13  40
HETATM   40  O25 BE5 A 501      12.016  28.516   1.830  1.00 21.98    -0.390 OA
HETATM   41  H25 BE5 A 501      12.142  29.418   2.097  1.00  0.00     0.210 HD
ENDBRANCH  13  40
ENDBRANCH  12  13
BRANCH  12  42
HETATM   42  O24 BE5 A 501      10.859  30.647   1.807  1.00 17.11    -0.390 OA
HETATM   43  H24 BE5 A 501      11.179  30.164   2.560  1.00  0.00     0.210 HD
ENDBRANCH  12  42
ENDBRANCH  11  12
BRANCH  11  44
HETATM   44  C19 BE5 A 501       8.639  30.354  -1.067  1.00 17.37     0.250 C 
HETATM   45  O20 BE5 A 501       7.961  31.412  -1.077  1.00 18.21    -0.271 OA
HETATM   46  N21 BE5 A 501       8.108  29.170  -1.492  1.00 14.53    -0.348 N 
HETATM   47  H21 BE5 A 501       8.697  28.337  -1.459  1.00  0.00     0.163 HD
BRANCH  46  48
HETATM   48  C39 BE5 A 501       6.759  29.034  -1.986  1.00 14.05     0.143 C 
HETATM   49  C40 BE5 A 501       6.709  29.016  -3.508  1.00 15.79    -0.052 A 
HETATM   50  C41 BE5 A 501       5.731  28.039  -3.955  1.00 16.99    -0.073 A 
HETATM   51  C42 BE5 A 501       7.476  29.801  -4.488  1.00 16.33     0.036 A 
HETATM   52  C47 BE5 A 501       5.471  27.799  -5.389  1.00 17.22     0.034 A 
HETATM   53  C48 BE5 A 501       5.112  27.399  -2.749  1.00 15.28     0.068 C 
HETATM   54  C44 BE5 A 501       6.239  28.585  -6.357  1.00 17.66     0.005 A 
HETATM   55  C43 BE5 A 501       7.235  29.580  -5.946  1.00 18.87     0.005 A 
HETATM   56  C45 BE5 A 501       6.148  27.650  -1.639  1.00 13.23     0.149 C 
BRANCH  56  57
HETATM   57  O46 BE5 A 501       7.230  26.683  -1.623  1.00 13.13    -0.393 OA
HETATM   58  H46 BE5 A 501       7.435  26.496  -0.715  1.00  0.00     0.210 HD
ENDBRANCH  56  57
ENDBRANCH  46  48
ENDBRANCH  11  44
ENDBRANCH  10  11
ENDBRANCH   9  10
ENDBRANCH   1   9
TORSDOF 17
ENDMDL
MODEL 5
REMARK VINA RESULT:       0.1      8.728     12.287
REMARK  17 active torsions:
REMARK  status: ('A' for Active; 'I' for Inactive)
REMARK    1  A    between atoms: C01_1  and  C23_41 
REMARK    2  A    between atoms: C07_12  and  C13_24 
REMARK    3  A    between atoms: C13_24  and  O14_27 
REMARK    4  A    between atoms: O14_27  and  C15_28 
REMARK    5  A    between atoms: C15_28  and  C16_30 
REMARK    6  A    between atoms: C15_28  and  C26_48 
REMARK    7  A    between atoms: C16_30  and  C17_32 
REMARK    8  A    between atoms: C16_30  and  O25_46 
REMARK    9  A    between atoms: C17_32  and  C18_34 
REMARK   10  A    between atoms: C17_32  and  O24_44 
REMARK   11  A    between atoms: C18_34  and  C19_36 
REMARK   12  A    between atoms: C18_34  and  O22_40 
REMARK       I    between atoms: C19_36  and  N21_38 
REMARK   13  A    between atoms: N21_38  and  C39_75 
REMARK   14  A    between atoms: O22_40  and  C23_41 
REMARK       I    between atoms: C26_48  and  N28_50 
REMARK   15  A    between atoms: N28_50  and  C29_52 
REMARK   16  A    between atoms: C35_65  and  O36_67 
REMARK   17  A    between atoms: C45_88  and  O46_90 
ROOT
HETATM    1  C01 BE5 A 501       8.645  22.111  11.995  1.00 24.49     0.003 A 
HETATM    2  C02 BE5 A 501       7.744  22.893  12.862  1.00 24.30    -0.014 A 
HETATM    3  C03 BE5 A 501       6.984  22.283  13.937  1.00 26.88     0.035 A 
HETATM    4  C04 BE5 A 501       7.093  20.840  14.201  1.00 26.55     0.077 A 
HETATM    5  C05 BE5 A 501       7.989  20.022  13.354  1.00 25.99     0.133 A 
HETATM    6  C06 BE5 A 501       8.745  20.648  12.277  1.00 25.99     0.158 A 
HETATM    7  F50 BE5 A 501       8.119  18.581  13.596  1.00 29.63    -0.208 F 
HETATM    8  F51 BE5 A 501       9.678  19.843  11.387  1.00 27.35    -0.203 F 
ENDROOT
BRANCH   1   9
HETATM    9  C23 BE5 A 501       9.396  22.875  10.894  1.00 23.01     0.210 C 
BRANCH   9  10
HETATM   10  O22 BE5 A 501       9.004  22.339   9.592  1.00 22.02    -0.369 OA
BRANCH  10  11
HETATM   11  C18 BE5 A 501      10.042  21.858   8.633  1.00 18.95     0.244 C 
BRANCH  11  12
HETATM   12  C17 BE5 A 501      10.207  22.827   7.382  1.00 20.08     0.188 C 
BRANCH  12  13
HETATM   13  C16 BE5 A 501       9.135  23.812   7.444  1.00 20.53     0.188 C 
BRANCH  13  14
HETATM   14  C15 BE5 A 501       8.151  23.629   6.321  1.00 18.51     0.244 C 
BRANCH  14  15
HETATM   15  O14 BE5 A 501       8.261  22.261   5.641  1.00 19.29    -0.369 OA
BRANCH  15  16
HETATM   16  C13 BE5 A 501       8.494  22.167   4.198  1.00 21.08     0.206 C 
BRANCH  16  17
HETATM   17  C07 BE5 A 501       8.684  20.711   3.787  1.00 21.04    -0.015 A 
HETATM   18  C08 BE5 A 501       9.827  19.890   4.231  1.00 23.02     0.155 A 
HETATM   19  C09 BE5 A 501       9.935  18.467   3.791  1.00 21.73     0.132 A 
HETATM   20  F52 BE5 A 501      10.867  20.479   5.118  1.00 24.30    -0.203 F 
HETATM   21  C10 BE5 A 501       8.879  17.887   2.898  1.00 24.35     0.073 A 
HETATM   22  F49 BE5 A 501      11.063  17.656   4.233  1.00 27.68    -0.208 F 
HETATM   23  C11 BE5 A 501       7.739  18.756   2.473  1.00 23.62     0.011 A 
HETATM   24  C12 BE5 A 501       7.665  20.123   2.919  1.00 22.67     0.040 A 
ENDBRANCH  16  17
ENDBRANCH  15  16
ENDBRANCH  14  15
BRANCH  14  25
HETATM   25  C26 BE5 A 501       6.821  23.813   6.935  1.00 16.79     0.250 C 
HETATM   26  O27 BE5 A 501       5.793  23.790   6.212  1.00 20.11    -0.271 OA
HETATM   27  N28 BE5 A 501       6.738  23.998   8.277  1.00 15.99    -0.348 N 
HETATM   28  H28 BE5 A 501       7.593  24.008   8.833  1.00  0.00     0.163 HD
BRANCH  27  29
HETATM   29  C29 BE5 A 501       5.461  24.181   8.936  1.00 16.00     0.143 C 
HETATM   30  C30 BE5 A 501       5.165  22.997   9.800  1.00 16.23    -0.052 A 
HETATM   31  C31 BE5 A 501       4.385  23.423  10.965  1.00 17.03    -0.073 A 
HETATM   32  C32 BE5 A 501       5.541  21.573   9.628  1.00 16.86     0.036 A 
HETATM   33  C37 BE5 A 501       3.954  22.457  11.991  1.00 17.71     0.034 A 
HETATM   34  C38 BE5 A 501       4.155  24.882  10.883  1.00 16.65     0.068 C 
HETATM   35  C34 BE5 A 501       4.329  21.040  11.822  1.00 19.35     0.005 A 
HETATM   36  C33 BE5 A 501       5.112  20.578  10.662  1.00 18.24     0.005 A 
HETATM   37  C35 BE5 A 501       5.350  25.320   9.984  1.00 16.83     0.149 C 
BRANCH  37  38
HETATM   38  O36 BE5 A 501       6.623  25.390  10.671  1.00 14.03    -0.393 OA
HETATM   39  H36 BE5 A 501       6.730  26.287  10.967  1.00  0.00     0.210 HD
ENDBRANCH  37  38
ENDBRANCH  27  29
ENDBRANCH  14  25
ENDBRANCH  13  14
BRANCH  13  40
HETATM   40  O25 BE5 A 501       9.722  25.172   7.312  1.00 21.98    -0.390 OA
HETATM   41  H25 BE5 A 501       9.835  25.521   8.187  1.00  0.00     0.210 HD
ENDBRANCH  13  40
ENDBRANCH  12  13
BRANCH  12  42
HETATM   42  O24 BE5 A 501      11.488  23.512   7.421  1.00 17.11    -0.390 OA
HETATM   43  H24 BE5 A 501      12.156  22.907   7.721  1.00  0.00     0.210 HD
ENDBRANCH  12  42
ENDBRANCH  11  12
BRANCH  11  44
HETATM   44  C19 BE5 A 501       9.693  20.441   8.207  1.00 17.37     0.250 C 
HETATM   45  O20 BE5 A 501      10.562  19.533   8.202  1.00 18.21    -0.271 OA
HETATM   46  N21 BE5 A 501       8.410  20.195   7.811  1.00 14.53    -0.348 N 
HETATM   47  H21 BE5 A 501       7.742  20.966   7.828  1.00  0.00     0.163 HD
BRANCH  46  48
HETATM   48  C39 BE5 A 501       7.948  18.900   7.369  1.00 14.05     0.143 C 
HETATM   49  C40 BE5 A 501       7.209  18.152   8.471  1.00 15.79    -0.052 A 
HETATM   50  C41 BE5 A 501       6.061  17.460   7.910  1.00 16.99    -0.073 A 
HETATM   51  C42 BE5 A 501       7.498  18.066   9.911  1.00 16.33     0.036 A 
HETATM   52  C47 BE5 A 501       5.153  16.654   8.750  1.00 17.22     0.034 A 
HETATM   53  C48 BE5 A 501       6.020  17.727   6.435  1.00 15.28     0.068 C 
HETATM   54  C44 BE5 A 501       5.447  16.574  10.182  1.00 17.66     0.005 A 
HETATM   55  C43 BE5 A 501       6.595  17.257  10.786  1.00 18.87     0.005 A 
HETATM   56  C45 BE5 A 501       6.848  19.015   6.281  1.00 13.23     0.149 C 
BRANCH  56  57
HETATM   57  O46 BE5 A 501       6.095  20.227   6.543  1.00 13.13    -0.393 OA
HETATM   58  H46 BE5 A 501       5.279  19.976   6.959  1.00  0.00     0.210 HD
ENDBRANCH  56  57
ENDBRANCH  46  48
ENDBRANCH  11  44
ENDBRANCH  10  11
ENDBRANCH   9  10
ENDBRANCH   1   9
TORSDOF 17
ENDMDL
MODEL 6
REMARK VINA RESULT:       0.1      5.597     10.058
REMARK  17 active torsions:
REMARK  status: ('A' for Active; 'I' for Inactive)
REMARK    1  A    between atoms: C01_1  and  C23_41 
REMARK    2  A    between atoms: C07_12  and  C13_24 
REMARK    3  A    between atoms: C13_24  and  O14_27 
REMARK    4  A    between atoms: O14_27  and  C15_28 
REMARK    5  A    between atoms: C15_28  and  C16_30 
REMARK    6  A    between atoms: C15_28  and  C26_48 
REMARK    7  A    between atoms: C16_30  and  C17_32 
REMARK    8  A    between atoms: C16_30  and  O25_46 
REMARK    9  A    between atoms: C17_32  and  C18_34 
REMARK   10  A    between atoms: C17_32  and  O24_44 
REMARK   11  A    between atoms: C18_34  and  C19_36 
REMARK   12  A    between atoms: C18_34  and  O22_40 
REMARK       I    between atoms: C19_36  and  N21_38 
REMARK   13  A    between atoms: N21_38  and  C39_75 
REMARK   14  A    between atoms: O22_40  and  C23_41 
REMARK       I    between atoms: C26_48  and  N28_50 
REMARK   15  A    between atoms: N28_50  and  C29_52 
REMARK   16  A    between atoms: C35_65  and  O36_67 
REMARK   17  A    between atoms: C45_88  and  O46_90 
ROOT
HETATM    1  C01 BE5 A 501       2.892  30.448   2.898  1.00 24.49     0.003 A 
HETATM    2  C02 BE5 A 501       2.763  31.007   1.540  1.00 24.30    -0.014 A 
HETATM    3  C03 BE5 A 501       2.012  30.337   0.495  1.00 26.88     0.035 A 
HETATM    4  C04 BE5 A 501       1.341  29.056   0.765  1.00 26.55     0.077 A 
HETATM    5  C05 BE5 A 501       1.444  28.464   2.117  1.00 25.99     0.133 A 
HETATM    6  C06 BE5 A 501       2.203  29.147   3.156  1.00 25.99     0.158 A 
HETATM    7  F50 BE5 A 501       0.782  27.189   2.415  1.00 29.63    -0.208 F 
HETATM    8  F51 BE5 A 501       2.330  28.574   4.558  1.00 27.35    -0.203 F 
ENDROOT
BRANCH   1   9
HETATM    9  C23 BE5 A 501       3.711  31.256   3.915  1.00 23.01     0.210 C 
BRANCH   9  10
HETATM   10  O22 BE5 A 501       4.659  32.104   3.194  1.00 22.02    -0.369 OA
BRANCH  10  11
HETATM   11  C18 BE5 A 501       6.118  32.037   3.506  1.00 18.95     0.244 C 
BRANCH  11  12
HETATM   12  C17 BE5 A 501       7.001  32.831   2.448  1.00 20.08     0.188 C 
BRANCH  12  13
HETATM   13  C16 BE5 A 501       6.195  33.009   1.247  1.00 20.53     0.188 C 
BRANCH  13  14
HETATM   14  C15 BE5 A 501       7.050  33.086   0.013  1.00 18.51     0.244 C 
BRANCH  14  15
HETATM   15  O14 BE5 A 501       7.810  31.788  -0.275  1.00 19.29    -0.369 OA
BRANCH  15  16
HETATM   16  C13 BE5 A 501       8.642  31.666  -1.474  1.00 21.08     0.206 C 
BRANCH  16  17
HETATM   17  C07 BE5 A 501       7.953  30.783  -2.508  1.00 21.04    -0.015 A 
HETATM   18  C08 BE5 A 501       7.441  31.295  -3.793  1.00 23.02     0.155 A 
HETATM   19  C09 BE5 A 501       6.785  30.361  -4.758  1.00 21.73     0.132 A 
HETATM   20  F52 BE5 A 501       7.581  32.738  -4.130  1.00 24.30    -0.203 F 
HETATM   21  C10 BE5 A 501       6.652  28.908  -4.406  1.00 24.35     0.073 A 
HETATM   22  F49 BE5 A 501       6.284  30.867  -6.030  1.00 27.68    -0.208 F 
HETATM   23  C11 BE5 A 501       7.184  28.435  -3.092  1.00 23.62     0.011 A 
HETATM   24  C12 BE5 A 501       7.813  29.362  -2.188  1.00 22.67     0.040 A 
ENDBRANCH  16  17
ENDBRANCH  15  16
ENDBRANCH  14  15
BRANCH  14  25
HETATM   25  C26 BE5 A 501       6.120  33.413  -1.086  1.00 16.79     0.250 C 
HETATM   26  O27 BE5 A 501       6.317  34.440  -1.784  1.00 20.11    -0.271 OA
HETATM   27  N28 BE5 A 501       5.069  32.587  -1.323  1.00 15.99    -0.348 N 
HETATM   28  H28 BE5 A 501       4.941  31.761  -0.739  1.00  0.00     0.163 HD
BRANCH  27  29
HETATM   29  C29 BE5 A 501       4.125  32.854  -2.389  1.00 16.00     0.143 C 
HETATM   30  C30 BE5 A 501       3.353  31.613  -2.702  1.00 16.23    -0.052 A 
HETATM   31  C31 BE5 A 501       2.003  31.973  -3.144  1.00 17.03    -0.073 A 
HETATM   32  C32 BE5 A 501       3.761  30.190  -2.620  1.00 16.86     0.036 A 
HETATM   33  C37 BE5 A 501       1.019  30.941  -3.516  1.00 17.71     0.034 A 
HETATM   34  C38 BE5 A 501       1.869  33.446  -3.131  1.00 16.65     0.068 C 
HETATM   35  C34 BE5 A 501       1.424  29.524  -3.433  1.00 19.35     0.005 A 
HETATM   36  C33 BE5 A 501       2.773  29.128  -2.993  1.00 18.24     0.005 A 
HETATM   37  C35 BE5 A 501       2.959  33.833  -2.087  1.00 16.83     0.149 C 
BRANCH  37  38
HETATM   38  O36 BE5 A 501       2.571  33.619  -0.708  1.00 14.03    -0.393 OA
HETATM   39  H36 BE5 A 501       1.633  33.468  -0.703  1.00  0.00     0.210 HD
ENDBRANCH  37  38
ENDBRANCH  27  29
ENDBRANCH  14  25
ENDBRANCH  13  14
BRANCH  13  40
HETATM   40  O25 BE5 A 501       5.444  34.288   1.356  1.00 21.98    -0.390 OA
HETATM   41  H25 BE5 A 501       5.914  34.846   1.964  1.00  0.00     0.210 HD
ENDBRANCH  13  40
ENDBRANCH  12  13
BRANCH  12  42
HETATM   42  O24 BE5 A 501       7.384  34.134   2.963  1.00 17.11    -0.390 OA
HETATM   43  H24 BE5 A 501       8.248  34.357   2.638  1.00  0.00     0.210 HD
ENDBRANCH  12  42
ENDBRANCH  11  12
BRANCH  11  44
HETATM   44  C19 BE5 A 501       6.528  30.576   3.603  1.00 17.37     0.250 C 
HETATM   45  O20 BE5 A 501       6.874  30.072   4.701  1.00 18.21    -0.271 OA
HETATM   46  N21 BE5 A 501       6.529  29.840   2.453  1.00 14.53    -0.348 N 
HETATM   47  H21 BE5 A 501       6.245  30.296   1.586  1.00  0.00     0.163 HD
BRANCH  46  48
HETATM   48  C39 BE5 A 501       6.911  28.448   2.401  1.00 14.05     0.143 C 
HETATM   49  C40 BE5 A 501       6.224  27.712   1.258  1.00 15.79    -0.052 A 
HETATM   50  C41 BE5 A 501       7.159  26.789   0.636  1.00 16.99    -0.073 A 
HETATM   51  C42 BE5 A 501       4.847  27.826   0.754  1.00 16.33     0.036 A 
HETATM   52  C47 BE5 A 501       6.769  25.941  -0.508  1.00 17.22     0.034 A 
HETATM   53  C48 BE5 A 501       8.473  26.889   1.353  1.00 15.28     0.068 C 
HETATM   54  C44 BE5 A 501       5.396  26.060  -1.002  1.00 17.66     0.005 A 
HETATM   55  C43 BE5 A 501       4.424  26.980  -0.403  1.00 18.87     0.005 A 
HETATM   56  C45 BE5 A 501       8.407  28.270   2.029  1.00 13.23     0.149 C 
BRANCH  56  57
HETATM   57  O46 BE5 A 501       8.778  29.366   1.154  1.00 13.13    -0.393 OA
HETATM   58  H46 BE5 A 501       9.126  28.991   0.354  1.00  0.00     0.210 HD
ENDBRANCH  56  57
ENDBRANCH  46  48
ENDBRANCH  11  44
ENDBRANCH  10  11
ENDBRANCH   9  10
ENDBRANCH   1   9
TORSDOF 17
ENDMDL
MODEL 7
REMARK VINA RESULT:       0.1      8.957     13.102
REMARK  17 active torsions:
REMARK  status: ('A' for Active; 'I' for Inactive)
REMARK    1  A    between atoms: C01_1  and  C23_41 
REMARK    2  A    between atoms: C07_12  and  C13_24 
REMARK    3  A    between atoms: C13_24  and  O14_27 
REMARK    4  A    between atoms: O14_27  and  C15_28 
REMARK    5  A    between atoms: C15_28  and  C16_30 
REMARK    6  A    between atoms: C15_28  and  C26_48 
REMARK    7  A    between atoms: C16_30  and  C17_32 
REMARK    8  A    between atoms: C16_30  and  O25_46 
REMARK    9  A    between atoms: C17_32  and  C18_34 
REMARK   10  A    between atoms: C17_32  and  O24_44 
REMARK   11  A    between atoms: C18_34  and  C19_36 
REMARK   12  A    between atoms: C18_34  and  O22_40 
REMARK       I    between atoms: C19_36  and  N21_38 
REMARK   13  A    between atoms: N21_38  and  C39_75 
REMARK   14  A    between atoms: O22_40  and  C23_41 
REMARK       I    between atoms: C26_48  and  N28_50 
REMARK   15  A    between atoms: N28_50  and  C29_52 
REMARK   16  A    between atoms: C35_65  and  O36_67 
REMARK   17  A    between atoms: C45_88  and  O46_90 
ROOT
HETATM    1  C01 BE5 A 501       7.845  18.194   8.941  1.00 24.49     0.003 A 
HETATM    2  C02 BE5 A 501       6.452  17.716   8.875  1.00 24.30    -0.014 A 
HETATM    3  C03 BE5 A 501       5.972  16.875   7.794  1.00 26.88     0.035 A 
HETATM    4  C04 BE5 A 501       6.879  16.464   6.712  1.00 26.55     0.077 A 
HETATM    5  C05 BE5 A 501       8.286  16.921   6.743  1.00 25.99     0.133 A 
HETATM    6  C06 BE5 A 501       8.753  17.767   7.834  1.00 25.99     0.158 A 
HETATM    7  F50 BE5 A 501       9.214  16.524   5.678  1.00 29.63    -0.208 F 
HETATM    8  F51 BE5 A 501      10.191  18.253   7.905  1.00 27.35    -0.203 F 
ENDROOT
BRANCH   1   9
HETATM    9  C23 BE5 A 501       8.229  19.075  10.139  1.00 23.01     0.210 C 
BRANCH   9  10
HETATM   10  O22 BE5 A 501       7.807  20.450   9.872  1.00 22.02    -0.369 OA
BRANCH  10  11
HETATM   11  C18 BE5 A 501       8.824  21.517   9.638  1.00 18.95     0.244 C 
BRANCH  11  12
HETATM   12  C17 BE5 A 501       8.289  22.961  10.039  1.00 20.08     0.188 C 
BRANCH  12  13
HETATM   13  C16 BE5 A 501       7.034  22.782  10.757  1.00 20.53     0.188 C 
BRANCH  13  14
HETATM   14  C15 BE5 A 501       5.903  23.509  10.083  1.00 18.51     0.244 C 
BRANCH  14  15
HETATM   15  O14 BE5 A 501       6.096  23.650   8.570  1.00 19.29    -0.369 OA
BRANCH  15  16
HETATM   16  C13 BE5 A 501       5.354  24.666   7.820  1.00 21.08     0.206 C 
BRANCH  16  17
HETATM   17  C07 BE5 A 501       4.171  24.032   7.098  1.00 21.04    -0.015 A 
HETATM   18  C08 BE5 A 501       2.769  24.406   7.365  1.00 23.02     0.155 A 
HETATM   19  C09 BE5 A 501       1.665  23.743   6.606  1.00 21.73     0.132 A 
HETATM   20  F52 BE5 A 501       2.455  25.444   8.385  1.00 24.30    -0.203 F 
HETATM   21  C10 BE5 A 501       1.996  22.699   5.581  1.00 24.35     0.073 A 
HETATM   22  F49 BE5 A 501       0.281  24.116   6.867  1.00 27.68    -0.208 F 
HETATM   23  C11 BE5 A 501       3.431  22.352   5.345  1.00 23.62     0.011 A 
HETATM   24  C12 BE5 A 501       4.469  23.013   6.092  1.00 22.67     0.040 A 
ENDBRANCH  16  17
ENDBRANCH  15  16
ENDBRANCH  14  15
BRANCH  14  25
HETATM   25  C26 BE5 A 501       4.694  22.721  10.394  1.00 16.79     0.250 C 
HETATM   26  O27 BE5 A 501       3.588  23.305  10.532  1.00 20.11    -0.271 OA
HETATM   27  N28 BE5 A 501       4.802  21.374  10.518  1.00 15.99    -0.348 N 
HETATM   28  H28 BE5 A 501       5.714  20.933  10.397  1.00  0.00     0.163 HD
BRANCH  27  29
HETATM   29  C29 BE5 A 501       3.651  20.549  10.820  1.00 16.00     0.143 C 
HETATM   30  C30 BE5 A 501       3.299  19.718   9.628  1.00 16.23    -0.052 A 
HETATM   31  C31 BE5 A 501       2.730  18.442  10.070  1.00 17.03    -0.073 A 
HETATM   32  C32 BE5 A 501       3.451  20.011   8.182  1.00 16.86     0.036 A 
HETATM   33  C37 BE5 A 501       2.296  17.421   9.100  1.00 17.71     0.034 A 
HETATM   34  C38 BE5 A 501       2.696  18.416  11.549  1.00 16.65     0.068 C 
HETATM   35  C34 BE5 A 501       2.448  17.712   7.661  1.00 19.35     0.005 A 
HETATM   36  C33 BE5 A 501       3.016  18.985   7.183  1.00 18.24     0.005 A 
HETATM   37  C35 BE5 A 501       3.823  19.436  11.888  1.00 16.83     0.149 C 
BRANCH  37  38
HETATM   38  O36 BE5 A 501       5.167  18.914  11.744  1.00 14.03    -0.393 OA
HETATM   39  H36 BE5 A 501       5.722  19.408  12.337  1.00  0.00     0.210 HD
ENDBRANCH  37  38
ENDBRANCH  27  29
ENDBRANCH  14  25
ENDBRANCH  13  14
BRANCH  13  40
HETATM   40  O25 BE5 A 501       7.178  23.343  12.126  1.00 21.98    -0.390 OA
HETATM   41  H25 BE5 A 501       7.572  24.203  12.045  1.00  0.00     0.210 HD
ENDBRANCH  13  40
ENDBRANCH  12  13
BRANCH  12  42
HETATM   42  O24 BE5 A 501       9.238  23.646  10.900  1.00 17.11    -0.390 OA
HETATM   43  H24 BE5 A 501      10.101  23.609  10.504  1.00  0.00     0.210 HD
ENDBRANCH  12  42
ENDBRANCH  11  12
BRANCH  11  44
HETATM   44  C19 BE5 A 501       9.263  21.461   8.184  1.00 17.37     0.250 C 
HETATM   45  O20 BE5 A 501      10.480  21.395   7.877  1.00 18.21    -0.271 OA
HETATM   46  N21 BE5 A 501       8.293  21.509   7.225  1.00 14.53    -0.348 N 
HETATM   47  H21 BE5 A 501       7.319  21.568   7.524  1.00  0.00     0.163 HD
BRANCH  46  48
HETATM   48  C39 BE5 A 501       8.572  21.479   5.809  1.00 14.05     0.143 C 
HETATM   49  C40 BE5 A 501       7.405  20.914   5.010  1.00 15.79    -0.052 A 
HETATM   50  C41 BE5 A 501       7.240  21.670   3.779  1.00 16.99    -0.073 A 
HETATM   51  C42 BE5 A 501       6.503  19.794   5.320  1.00 16.33     0.036 A 
HETATM   52  C47 BE5 A 501       6.178  21.348   2.806  1.00 17.22     0.034 A 
HETATM   53  C48 BE5 A 501       8.290  22.740   3.735  1.00 15.28     0.068 C 
HETATM   54  C44 BE5 A 501       5.285  20.232   3.122  1.00 17.66     0.005 A 
HETATM   55  C43 BE5 A 501       5.418  19.445   4.353  1.00 18.87     0.005 A 
HETATM   56  C45 BE5 A 501       8.695  22.906   5.210  1.00 13.23     0.149 C 
BRANCH  56  57
HETATM   57  O46 BE5 A 501       7.811  23.777   5.962  1.00 13.13    -0.393 OA
HETATM   58  H46 BE5 A 501       8.223  23.952   6.800  1.00  0.00     0.210 HD
ENDBRANCH  56  57
ENDBRANCH  46  48
ENDBRANCH  11  44
ENDBRANCH  10  11
ENDBRANCH   9  10
ENDBRANCH   1   9
TORSDOF 17
ENDMDL
MODEL 8
REMARK VINA RESULT:       0.1      3.892      7.713
REMARK  17 active torsions:
REMARK  status: ('A' for Active; 'I' for Inactive)
REMARK    1  A    between atoms: C01_1  and  C23_41 
REMARK    2  A    between atoms: C07_12  and  C13_24 
REMARK    3  A    between atoms: C13_24  and  O14_27 
REMARK    4  A    between atoms: O14_27  and  C15_28 
REMARK    5  A    between atoms: C15_28  and  C16_30 
REMARK    6  A    between atoms: C15_28  and  C26_48 
REMARK    7  A    between atoms: C16_30  and  C17_32 
REMARK    8  A    between atoms: C16_30  and  O25_46 
REMARK    9  A    between atoms: C17_32  and  C18_34 
REMARK   10  A    between atoms: C17_32  and  O24_44 
REMARK   11  A    between atoms: C18_34  and  C19_36 
REMARK   12  A    between atoms: C18_34  and  O22_40 
REMARK       I    between atoms: C19_36  and  N21_38 
REMARK   13  A    between atoms: N21_38  and  C39_75 
REMARK   14  A    between atoms: O22_40  and  C23_41 
REMARK       I    between atoms: C26_48  and  N28_50 
REMARK   15  A    between atoms: N28_50  and  C29_52 
REMARK   16  A    between atoms: C35_65  and  O36_67 
REMARK   17  A    between atoms: C45_88  and  O46_90 
ROOT
HETATM    1  C01 BE5 A 501      10.741  27.772   9.384  1.00 24.49     0.003 A 
HETATM    2  C02 BE5 A 501      11.388  29.085   9.201  1.00 24.30    -0.014 A 
HETATM    3  C03 BE5 A 501      11.712  29.950  10.319  1.00 26.88     0.035 A 
HETATM    4  C04 BE5 A 501      11.403  29.536  11.696  1.00 26.55     0.077 A 
HETATM    5  C05 BE5 A 501      10.756  28.224  11.921  1.00 25.99     0.133 A 
HETATM    6  C06 BE5 A 501      10.434  27.367  10.788  1.00 25.99     0.158 A 
HETATM    7  F50 BE5 A 501      10.438  27.784  13.284  1.00 29.63    -0.208 F 
HETATM    8  F51 BE5 A 501       9.773  26.011  10.979  1.00 27.35    -0.203 F 
ENDROOT
BRANCH   1   9
HETATM    9  C23 BE5 A 501      10.453  26.949   8.120  1.00 23.01     0.210 C 
BRANCH   9  10
HETATM   10  O22 BE5 A 501       9.063  27.164   7.720  1.00 22.02    -0.369 OA
BRANCH  10  11
HETATM   11  C18 BE5 A 501       8.051  26.081   7.901  1.00 18.95     0.244 C 
BRANCH  11  12
HETATM   12  C17 BE5 A 501       7.353  25.670   6.531  1.00 20.08     0.188 C 
BRANCH  12  13
HETATM   13  C16 BE5 A 501       7.831  26.584   5.502  1.00 20.53     0.188 C 
BRANCH  13  14
HETATM   14  C15 BE5 A 501       6.719  27.443   4.966  1.00 18.51     0.244 C 
BRANCH  14  15
HETATM   15  O14 BE5 A 501       5.478  27.449   5.864  1.00 19.29    -0.369 OA
BRANCH  15  16
HETATM   16  C13 BE5 A 501       4.196  26.950   5.360  1.00 21.08     0.206 C 
BRANCH  16  17
HETATM   17  C07 BE5 A 501       3.173  26.888   6.488  1.00 21.04    -0.015 A 
HETATM   18  C08 BE5 A 501       3.261  25.928   7.606  1.00 23.02     0.155 A 
HETATM   19  C09 BE5 A 501       2.221  25.939   8.679  1.00 21.73     0.132 A 
HETATM   20  F52 BE5 A 501       4.386  24.955   7.665  1.00 24.30    -0.203 F 
HETATM   21  C10 BE5 A 501       1.094  26.926   8.606  1.00 24.35     0.073 A 
HETATM   22  F49 BE5 A 501       2.312  24.993   9.784  1.00 27.68    -0.208 F 
HETATM   23  C11 BE5 A 501       1.045  27.878   7.455  1.00 23.62     0.011 A 
HETATM   24  C12 BE5 A 501       2.066  27.842   6.440  1.00 22.67     0.040 A 
ENDBRANCH  16  17
ENDBRANCH  15  16
ENDBRANCH  14  15
BRANCH  14  25
HETATM   25  C26 BE5 A 501       7.296  28.796   4.846  1.00 16.79     0.250 C 
HETATM   26  O27 BE5 A 501       6.630  29.711   4.297  1.00 20.11    -0.271 OA
HETATM   27  N28 BE5 A 501       8.539  29.026   5.340  1.00 15.99    -0.348 N 
HETATM   28  H28 BE5 A 501       9.050  28.261   5.782  1.00  0.00     0.163 HD
BRANCH  27  29
HETATM   29  C29 BE5 A 501       9.156  30.333   5.254  1.00 16.00     0.143 C 
HETATM   30  C30 BE5 A 501       9.137  30.990   6.598  1.00 16.23    -0.052 A 
HETATM   31  C31 BE5 A 501      10.313  31.852   6.739  1.00 17.03    -0.073 A 
HETATM   32  C32 BE5 A 501       8.155  30.873   7.702  1.00 16.86     0.036 A 
HETATM   33  C37 BE5 A 501      10.552  32.623   7.971  1.00 17.71     0.034 A 
HETATM   34  C38 BE5 A 501      11.115  31.780   5.498  1.00 16.65     0.068 C 
HETATM   35  C34 BE5 A 501       9.576  32.506   9.072  1.00 19.35     0.005 A 
HETATM   36  C33 BE5 A 501       8.383  31.648   8.963  1.00 18.24     0.005 A 
HETATM   37  C35 BE5 A 501      10.675  30.393   4.942  1.00 16.83     0.149 C 
BRANCH  37  38
HETATM   38  O36 BE5 A 501      11.289  29.259   5.603  1.00 14.03    -0.393 OA
HETATM   39  H36 BE5 A 501      12.199  29.484   5.752  1.00  0.00     0.210 HD
ENDBRANCH  37  38
ENDBRANCH  27  29
ENDBRANCH  14  25
ENDBRANCH  13  14
BRANCH  13  40
HETATM   40  O25 BE5 A 501       8.374  25.790   4.367  1.00 21.98    -0.390 OA
HETATM   41  H25 BE5 A 501       8.174  24.877   4.534  1.00  0.00     0.210 HD
ENDBRANCH  13  40
ENDBRANCH  12  13
BRANCH  12  42
HETATM   42  O24 BE5 A 501       7.700  24.309   6.160  1.00 17.11    -0.390 OA
HETATM   43  H24 BE5 A 501       8.553  24.307   5.742  1.00  0.00     0.210 HD
ENDBRANCH  12  42
ENDBRANCH  11  12
BRANCH  11  44
HETATM   44  C19 BE5 A 501       7.037  26.530   8.939  1.00 17.37     0.250 C 
HETATM   45  O20 BE5 A 501       6.768  25.812   9.935  1.00 18.21    -0.271 OA
HETATM   46  N21 BE5 A 501       6.413  27.728   8.741  1.00 14.53    -0.348 N 
HETATM   47  H21 BE5 A 501       6.661  28.272   7.914  1.00  0.00     0.163 HD
BRANCH  46  48
HETATM   48  C39 BE5 A 501       5.419  28.266   9.640  1.00 14.05     0.143 C 
HETATM   49  C40 BE5 A 501       6.022  29.255  10.629  1.00 15.79    -0.052 A 
HETATM   50  C41 BE5 A 501       5.114  30.374  10.819  1.00 16.99    -0.073 A 
HETATM   51  C42 BE5 A 501       7.307  29.212  11.343  1.00 16.33     0.036 A 
HETATM   52  C47 BE5 A 501       5.441  31.494  11.723  1.00 17.22     0.034 A 
HETATM   53  C48 BE5 A 501       3.898  30.148   9.972  1.00 15.28     0.068 C 
HETATM   54  C44 BE5 A 501       6.722  31.443  12.431  1.00 17.66     0.005 A 
HETATM   55  C43 BE5 A 501       7.665  30.332  12.266  1.00 18.87     0.005 A 
HETATM   56  C45 BE5 A 501       4.386  29.157   8.901  1.00 13.23     0.149 C 
BRANCH  56  57
HETATM   57  O46 BE5 A 501       5.069  29.791   7.788  1.00 13.13    -0.393 OA
HETATM   58  H46 BE5 A 501       5.999  29.627   7.889  1.00  0.00     0.210 HD
ENDBRANCH  56  57
ENDBRANCH  46  48
ENDBRANCH  11  44
ENDBRANCH  10  11
ENDBRANCH   9  10
ENDBRANCH   1   9
TORSDOF 17
ENDMDL
MODEL 9
REMARK VINA RESULT:       0.1      6.381      9.269
REMARK  17 active torsions:
REMARK  status: ('A' for Active; 'I' for Inactive)
REMARK    1  A    between atoms: C01_1  and  C23_41 
REMARK    2  A    between atoms: C07_12  and  C13_24 
REMARK    3  A    between atoms: C13_24  and  O14_27 
REMARK    4  A    between atoms: O14_27  and  C15_28 
REMARK    5  A    between atoms: C15_28  and  C16_30 
REMARK    6  A    between atoms: C15_28  and  C26_48 
REMARK    7  A    between atoms: C16_30  and  C17_32 
REMARK    8  A    between atoms: C16_30  and  O25_46 
REMARK    9  A    between atoms: C17_32  and  C18_34 
REMARK   10  A    between atoms: C17_32  and  O24_44 
REMARK   11  A    between atoms: C18_34  and  C19_36 
REMARK   12  A    between atoms: C18_34  and  O22_40 
REMARK       I    between atoms: C19_36  and  N21_38 
REMARK   13  A    between atoms: N21_38  and  C39_75 
REMARK   14  A    between atoms: O22_40  and  C23_41 
REMARK       I    between atoms: C26_48  and  N28_50 
REMARK   15  A    between atoms: N28_50  and  C29_52 
REMARK   16  A    between atoms: C35_65  and  O36_67 
REMARK   17  A    between atoms: C45_88  and  O46_90 
ROOT
HETATM    1  C01 BE5 A 501      16.402  25.935  -1.555  1.00 24.49     0.003 A 
HETATM    2  C02 BE5 A 501      15.145  25.165  -1.499  1.00 24.30    -0.014 A 
HETATM    3  C03 BE5 A 501      14.262  25.042  -2.643  1.00 26.88     0.035 A 
HETATM    4  C04 BE5 A 501      14.600  25.692  -3.919  1.00 26.55     0.077 A 
HETATM    5  C05 BE5 A 501      15.854  26.471  -4.015  1.00 25.99     0.133 A 
HETATM    6  C06 BE5 A 501      16.731  26.587  -2.858  1.00 25.99     0.158 A 
HETATM    7  F50 BE5 A 501      16.219  27.128  -5.276  1.00 29.63    -0.208 F 
HETATM    8  F51 BE5 A 501      18.030  27.375  -2.918  1.00 27.35    -0.203 F 
ENDROOT
BRANCH   1   9
HETATM    9  C23 BE5 A 501      17.251  25.985  -0.276  1.00 23.01     0.210 C 
BRANCH   9  10
HETATM   10  O22 BE5 A 501      16.921  27.201   0.465  1.00 22.02    -0.369 OA
BRANCH  10  11
HETATM   11  C18 BE5 A 501      17.876  28.349   0.492  1.00 18.95     0.244 C 
BRANCH  11  12
HETATM   12  C17 BE5 A 501      18.294  28.755   1.972  1.00 20.08     0.188 C 
BRANCH  12  13
HETATM   13  C16 BE5 A 501      17.513  27.936   2.890  1.00 20.53     0.188 C 
BRANCH  13  14
HETATM   14  C15 BE5 A 501      16.566  28.770   3.707  1.00 18.51     0.244 C 
BRANCH  14  15
HETATM   15  O14 BE5 A 501      16.359  30.177   3.136  1.00 19.29    -0.369 OA
BRANCH  15  16
HETATM   16  C13 BE5 A 501      16.688  31.358   3.938  1.00 21.08     0.206 C 
BRANCH  16  17
HETATM   17  C07 BE5 A 501      16.587  32.619   3.087  1.00 21.04    -0.015 A 
HETATM   18  C08 BE5 A 501      17.499  32.910   1.965  1.00 23.02     0.155 A 
HETATM   19  C09 BE5 A 501      17.327  34.166   1.173  1.00 21.73     0.132 A 
HETATM   20  F52 BE5 A 501      18.586  31.953   1.620  1.00 24.30    -0.203 F 
HETATM   21  C10 BE5 A 501      16.227  35.121   1.532  1.00 24.35     0.073 A 
HETATM   22  F49 BE5 A 501      18.227  34.451   0.062  1.00 27.68    -0.208 F 
HETATM   23  C11 BE5 A 501      15.328  34.784   2.677  1.00 23.62     0.011 A 
HETATM   24  C12 BE5 A 501      15.520  33.564   3.416  1.00 22.67     0.040 A 
ENDBRANCH  16  17
ENDBRANCH  15  16
ENDBRANCH  14  15
BRANCH  14  25
HETATM   25  C26 BE5 A 501      15.298  28.013   3.728  1.00 16.79     0.250 C 
HETATM   26  O27 BE5 A 501      14.342  28.418   4.437  1.00 20.11    -0.271 OA
HETATM   27  N28 BE5 A 501      15.192  26.892   2.970  1.00 15.99    -0.348 N 
HETATM   28  H28 BE5 A 501      15.987  26.594   2.404  1.00  0.00     0.163 HD
BRANCH  27  29
HETATM   29  C29 BE5 A 501      13.973  26.109   2.948  1.00 16.00     0.143 C 
HETATM   30  C30 BE5 A 501      13.218  26.387   1.687  1.00 16.23    -0.052 A 
HETATM   31  C31 BE5 A 501      12.486  25.185   1.279  1.00 17.03    -0.073 A 
HETATM   32  C32 BE5 A 501      13.137  27.627   0.878  1.00 16.86     0.036 A 
HETATM   33  C37 BE5 A 501      11.656  25.172   0.062  1.00 17.71     0.034 A 
HETATM   34  C38 BE5 A 501      12.745  24.108   2.260  1.00 16.65     0.068 C 
HETATM   35  C34 BE5 A 501      11.576  26.405  -0.745  1.00 19.35     0.005 A 
HETATM   36  C33 BE5 A 501      12.299  27.631  -0.363  1.00 18.24     0.005 A 
HETATM   37  C35 BE5 A 501      14.111  24.566   2.850  1.00 16.83     0.149 C 
BRANCH  37  38
HETATM   38  O36 BE5 A 501      15.253  24.295   2.001  1.00 14.03    -0.393 OA
HETATM   39  H36 BE5 A 501      16.011  24.227   2.569  1.00  0.00     0.210 HD
ENDBRANCH  37  38
ENDBRANCH  27  29
ENDBRANCH  14  25
ENDBRANCH  13  14
BRANCH  13  40
HETATM   40  O25 BE5 A 501      18.438  27.253   3.833  1.00 21.98    -0.390 OA
HETATM   41  H25 BE5 A 501      19.315  27.573   3.657  1.00  0.00     0.210 HD
ENDBRANCH  13  40
ENDBRANCH  12  13
BRANCH  12  42
HETATM   42  O24 BE5 A 501      19.708  28.510   2.199  1.00 17.11    -0.390 OA
HETATM   43  H24 BE5 A 501      19.823  28.116   3.055  1.00  0.00     0.210 HD
ENDBRANCH  12  42
ENDBRANCH  11  12
BRANCH  11  44
HETATM   44  C19 BE5 A 501      17.257  29.515  -0.261  1.00 17.37     0.250 C 
HETATM   45  O20 BE5 A 501      17.885  30.099  -1.180  1.00 18.21    -0.271 OA
HETATM   46  N21 BE5 A 501      16.008  29.920   0.111  1.00 14.53    -0.348 N 
HETATM   47  H21 BE5 A 501      15.542  29.418   0.867  1.00  0.00     0.163 HD
BRANCH  46  48
HETATM   48  C39 BE5 A 501      15.312  31.022  -0.508  1.00 14.05     0.143 C 
HETATM   49  C40 BE5 A 501      14.322  30.549  -1.565  1.00 15.79    -0.052 A 
HETATM   50  C41 BE5 A 501      13.107  31.341  -1.490  1.00 16.99    -0.073 A 
HETATM   51  C42 BE5 A 501      14.447  29.471  -2.559  1.00 16.33     0.036 A 
HETATM   52  C47 BE5 A 501      11.966  31.101  -2.396  1.00 17.22     0.034 A 
HETATM   53  C48 BE5 A 501      13.266  32.353  -0.395  1.00 15.28     0.068 C 
HETATM   54  C44 BE5 A 501      12.098  30.027  -3.382  1.00 17.66     0.005 A 
HETATM   55  C43 BE5 A 501      13.307  29.205  -3.489  1.00 18.87     0.005 A 
HETATM   56  C45 BE5 A 501      14.373  31.752   0.489  1.00 13.23     0.149 C 
BRANCH  56  57
HETATM   57  O46 BE5 A 501      13.890  30.768   1.440  1.00 13.13    -0.393 OA
HETATM   58  H46 BE5 A 501      14.632  30.478   1.957  1.00  0.00     0.210 HD
ENDBRANCH  56  57
ENDBRANCH  46  48
ENDBRANCH  11  44
ENDBRANCH  10  11
ENDBRANCH   9  10
ENDBRANCH   1   9
TORSDOF 17
ENDMDL
MODEL 10
REMARK VINA RESULT:       0.1      4.070      7.518
REMARK  17 active torsions:
REMARK  status: ('A' for Active; 'I' for Inactive)
REMARK    1  A    between atoms: C01_1  and  C23_41 
REMARK    2  A    between atoms: C07_12  and  C13_24 
REMARK    3  A    between atoms: C13_24  and  O14_27 
REMARK    4  A    between atoms: O14_27  and  C15_28 
REMARK    5  A    between atoms: C15_28  and  C16_30 
REMARK    6  A    between atoms: C15_28  and  C26_48 
REMARK    7  A    between atoms: C16_30  and  C17_32 
REMARK    8  A    between atoms: C16_30  and  O25_46 
REMARK    9  A    between atoms: C17_32  and  C18_34 
REMARK   10  A    between atoms: C17_32  and  O24_44 
REMARK   11  A    between atoms: C18_34  and  C19_36 
REMARK   12  A    between atoms: C18_34  and  O22_40 
REMARK       I    between atoms: C19_36  and  N21_38 
REMARK   13  A    between atoms: N21_38  and  C39_75 
REMARK   14  A    between atoms: O22_40  and  C23_41 
REMARK       I    between atoms: C26_48  and  N28_50 
REMARK   15  A    between atoms: N28_50  and  C29_52 
REMARK   16  A    between atoms: C35_65  and  O36_67 
REMARK   17  A    between atoms: C45_88  and  O46_90 
ROOT
HETATM    1  C01 BE5 A 501      11.507  25.629   5.101  1.00 24.49     0.003 A 
HETATM    2  C02 BE5 A 501      11.095  25.065   3.803  1.00 24.30    -0.014 A 
HETATM    3  C03 BE5 A 501      11.617  23.806   3.305  1.00 26.88     0.035 A 
HETATM    4  C04 BE5 A 501      12.591  23.039   4.097  1.00 26.55     0.077 A 
HETATM    5  C05 BE5 A 501      13.028  23.571   5.407  1.00 25.99     0.133 A 
HETATM    6  C06 BE5 A 501      12.496  24.837   5.893  1.00 25.99     0.158 A 
HETATM    7  F50 BE5 A 501      13.996  22.826   6.219  1.00 29.63    -0.208 F 
HETATM    8  F51 BE5 A 501      12.916  25.415   7.234  1.00 27.35    -0.203 F 
ENDROOT
BRANCH   1   9
HETATM    9  C23 BE5 A 501      10.878  26.967   5.516  1.00 23.01     0.210 C 
BRANCH   9  10
HETATM   10  O22 BE5 A 501      10.493  27.704   4.313  1.00 22.02    -0.369 OA
BRANCH  10  11
HETATM   11  C18 BE5 A 501      10.192  29.165   4.389  1.00 18.95     0.244 C 
BRANCH  11  12
HETATM   12  C17 BE5 A 501      10.285  29.877   2.969  1.00 20.08     0.188 C 
BRANCH  12  13
HETATM   13  C16 BE5 A 501      10.644  28.860   1.989  1.00 20.53     0.188 C 
BRANCH  13  14
HETATM   14  C15 BE5 A 501      11.981  29.144   1.362  1.00 18.51     0.244 C 
BRANCH  14  15
HETATM   15  O14 BE5 A 501      13.141  29.066   2.359  1.00 19.29    -0.369 OA
BRANCH  15  16
HETATM   16  C13 BE5 A 501      13.599  27.769   2.863  1.00 21.08     0.206 C 
BRANCH  16  17
HETATM   17  C07 BE5 A 501      15.113  27.773   3.036  1.00 21.04    -0.015 A 
HETATM   18  C08 BE5 A 501      15.874  26.601   3.509  1.00 23.02     0.155 A 
HETATM   19  C09 BE5 A 501      17.360  26.683   3.641  1.00 21.73     0.132 A 
HETATM   20  F52 BE5 A 501      15.163  25.338   3.849  1.00 24.30    -0.203 F 
HETATM   21  C10 BE5 A 501      18.064  27.961   3.294  1.00 24.35     0.073 A 
HETATM   22  F49 BE5 A 501      18.111  25.523   4.105  1.00 27.68    -0.208 F 
HETATM   23  C11 BE5 A 501      17.252  29.123   2.820  1.00 23.62     0.011 A 
HETATM   24  C12 BE5 A 501      15.822  29.008   2.701  1.00 22.67     0.040 A 
ENDBRANCH  16  17
ENDBRANCH  15  16
ENDBRANCH  14  15
BRANCH  14  25
HETATM   25  C26 BE5 A 501      12.130  28.139   0.291  1.00 16.79     0.250 C 
HETATM   26  O27 BE5 A 501      12.758  28.435  -0.757  1.00 20.11    -0.271 OA
HETATM   27  N28 BE5 A 501      11.588  26.907   0.468  1.00 15.99    -0.348 N 
HETATM   28  H28 BE5 A 501      11.088  26.701   1.332  1.00  0.00     0.163 HD
BRANCH  27  29
HETATM   29  C29 BE5 A 501      11.704  25.879  -0.546  1.00 16.00     0.143 C 
HETATM   30  C30 BE5 A 501      12.680  24.837  -0.100  1.00 16.23    -0.052 A 
HETATM   31  C31 BE5 A 501      12.286  23.533  -0.639  1.00 17.03    -0.073 A 
HETATM   32  C32 BE5 A 501      13.886  24.964   0.753  1.00 16.86     0.036 A 
HETATM   33  C37 BE5 A 501      13.070  22.319  -0.353  1.00 17.71     0.034 A 
HETATM   34  C38 BE5 A 501      11.056  23.697  -1.445  1.00 16.65     0.068 C 
HETATM   35  C34 BE5 A 501      14.271  22.444   0.496  1.00 19.35     0.005 A 
HETATM   36  C33 BE5 A 501      14.695  23.740   1.054  1.00 18.24     0.005 A 
HETATM   37  C35 BE5 A 501      10.460  24.991  -0.817  1.00 16.83     0.149 C 
BRANCH  37  38
HETATM   38  O36 BE5 A 501       9.798  24.790   0.456  1.00 14.03    -0.393 OA
HETATM   39  H36 BE5 A 501       9.089  25.420   0.503  1.00  0.00     0.210 HD
ENDBRANCH  37  38
ENDBRANCH  27  29
ENDBRANCH  14  25
ENDBRANCH  13  14
BRANCH  13  40
HETATM   40  O25 BE5 A 501       9.628  28.857   0.904  1.00 21.98    -0.390 OA
HETATM   41  H25 BE5 A 501       8.771  28.885   1.312  1.00  0.00     0.210 HD
ENDBRANCH  13  40
ENDBRANCH  12  13
BRANCH  12  42
HETATM   42  O24 BE5 A 501       9.009  30.466   2.600  1.00 17.11    -0.390 OA
HETATM   43  H24 BE5 A 501       8.334  30.139   3.182  1.00  0.00     0.210 HD
ENDBRANCH  12  42
ENDBRANCH  11  12
BRANCH  11  44
HETATM   44  C19 BE5 A 501      11.128  29.802   5.403  1.00 17.37     0.250 C 
HETATM   45  O20 BE5 A 501      10.757  30.009   6.586  1.00 18.21    -0.271 OA
HETATM   46  N21 BE5 A 501      12.374  30.163   4.979  1.00 14.53    -0.348 N 
HETATM   47  H21 BE5 A 501      12.626  29.979   4.007  1.00  0.00     0.163 HD
BRANCH  46  48
HETATM   48  C39 BE5 A 501      13.355  30.790   5.832  1.00 14.05     0.143 C 
HETATM   49  C40 BE5 A 501      14.479  29.833   6.208  1.00 15.79    -0.052 A 
HETATM   50  C41 BE5 A 501      15.750  30.538   6.191  1.00 16.99    -0.073 A 
HETATM   51  C42 BE5 A 501      14.426  28.403   6.549  1.00 16.33     0.036 A 
HETATM   52  C47 BE5 A 501      17.020  29.856   6.511  1.00 17.22     0.034 A 
HETATM   53  C48 BE5 A 501      15.496  31.966   5.813  1.00 15.28     0.068 C 
HETATM   54  C44 BE5 A 501      16.959  28.433   6.849  1.00 17.66     0.005 A 
HETATM   55  C43 BE5 A 501      15.697  27.687   6.877  1.00 18.87     0.005 A 
HETATM   56  C45 BE5 A 501      14.136  31.911   5.096  1.00 13.23     0.149 C 
BRANCH  56  57
HETATM   57  O46 BE5 A 501      14.230  31.536   3.697  1.00 13.13    -0.393 OA
HETATM   58  H46 BE5 A 501      14.645  30.683   3.655  1.00  0.00     0.210 HD
ENDBRANCH  56  57
ENDBRANCH  46  48
ENDBRANCH  11  44
ENDBRANCH  10  11
ENDBRANCH   9  10
ENDBRANCH   1   9
TORSDOF 17
ENDMDL
MODEL 11
REMARK VINA RESULT:       0.1      6.539      9.156
REMARK  17 active torsions:
REMARK  status: ('A' for Active; 'I' for Inactive)
REMARK    1  A    between atoms: C01_1  and  C23_41 
REMARK    2  A    between atoms: C07_12  and  C13_24 
REMARK    3  A    between atoms: C13_24  and  O14_27 
REMARK    4  A    between atoms: O14_27  and  C15_28 
REMARK    5  A    between atoms: C15_28  and  C16_30 
REMARK    6  A    between atoms: C15_28  and  C26_48 
REMARK    7  A    between atoms: C16_30  and  C17_32 
REMARK    8  A    between atoms: C16_30  and  O25_46 
REMARK    9  A    between atoms: C17_32  and  C18_34 
REMARK   10  A    between atoms: C17_32  and  O24_44 
REMARK   11  A    between atoms: C18_34  and  C19_36 
REMARK   12  A    between atoms: C18_34  and  O22_40 
REMARK       I    between atoms: C19_36  and  N21_38 
REMARK   13  A    between atoms: N21_38  and  C39_75 
REMARK   14  A    between atoms: O22_40  and  C23_41 
REMARK       I    between atoms: C26_48  and  N28_50 
REMARK   15  A    between atoms: N28_50  and  C29_52 
REMARK   16  A    between atoms: C35_65  and  O36_67 
REMARK   17  A    between atoms: C45_88  and  O46_90 
ROOT
HETATM    1  C01 BE5 A 501       7.028  21.545   8.911  1.00 24.49     0.003 A 
HETATM    2  C02 BE5 A 501       8.438  21.968   8.819  1.00 24.30    -0.014 A 
HETATM    3  C03 BE5 A 501       9.056  22.823   9.814  1.00 26.88     0.035 A 
HETATM    4  C04 BE5 A 501       8.281  23.303  10.969  1.00 26.55     0.077 A 
HETATM    5  C05 BE5 A 501       6.863  22.899  11.098  1.00 25.99     0.133 A 
HETATM    6  C06 BE5 A 501       6.256  22.040  10.090  1.00 25.99     0.158 A 
HETATM    7  F50 BE5 A 501       6.067  23.360  12.241  1.00 29.63    -0.208 F 
HETATM    8  F51 BE5 A 501       4.804  21.600  10.189  1.00 27.35    -0.203 F 
ENDROOT
BRANCH   1   9
HETATM    9  C23 BE5 A 501       6.493  20.636   7.795  1.00 23.01     0.210 C 
BRANCH   9  10
HETATM   10  O22 BE5 A 501       7.338  20.791   6.611  1.00 22.02    -0.369 OA
BRANCH  10  11
HETATM   11  C18 BE5 A 501       6.862  20.312   5.279  1.00 18.95     0.244 C 
BRANCH  11  12
HETATM   12  C17 BE5 A 501       7.566  21.075   4.074  1.00 20.08     0.188 C 
BRANCH  12  13
HETATM   13  C16 BE5 A 501       8.479  22.055   4.647  1.00 20.53     0.188 C 
BRANCH  13  14
HETATM   14  C15 BE5 A 501       8.099  23.458   4.261  1.00 18.51     0.244 C 
BRANCH  14  15
HETATM   15  O14 BE5 A 501       6.765  23.907   4.865  1.00 19.29    -0.369 OA
BRANCH  15  16
HETATM   16  C13 BE5 A 501       6.654  24.172   6.302  1.00 21.08     0.206 C 
BRANCH  16  17
HETATM   17  C07 BE5 A 501       5.692  25.327   6.554  1.00 21.04    -0.015 A 
HETATM   18  C08 BE5 A 501       5.407  25.860   7.900  1.00 23.02     0.155 A 
HETATM   19  C09 BE5 A 501       4.458  27.002   8.062  1.00 21.73     0.132 A 
HETATM   20  F52 BE5 A 501       6.068  25.264   9.093  1.00 24.30    -0.203 F 
HETATM   21  C10 BE5 A 501       3.800  27.594   6.850  1.00 24.35     0.073 A 
HETATM   22  F49 BE5 A 501       4.180  27.531   9.391  1.00 27.68    -0.208 F 
HETATM   23  C11 BE5 A 501       4.118  27.020   5.507  1.00 23.62     0.011 A 
HETATM   24  C12 BE5 A 501       5.040  25.922   5.388  1.00 22.67     0.040 A 
ENDBRANCH  16  17
ENDBRANCH  15  16
ENDBRANCH  14  15
BRANCH  14  25
HETATM   25  C26 BE5 A 501       9.211  24.307   4.733  1.00 16.79     0.250 C 
HETATM   26  O27 BE5 A 501       9.546  25.321   4.070  1.00 20.11    -0.271 OA
HETATM   27  N28 BE5 A 501       9.846  23.974   5.886  1.00 15.99    -0.348 N 
HETATM   28  H28 BE5 A 501       9.546  23.146   6.400  1.00  0.00     0.163 HD
BRANCH  27  29
HETATM   29  C29 BE5 A 501      10.942  24.770   6.400  1.00 16.00     0.143 C 
HETATM   30  C30 BE5 A 501      10.514  25.469   7.651  1.00 16.23    -0.052 A 
HETATM   31  C31 BE5 A 501      11.664  25.621   8.546  1.00 17.03    -0.073 A 
HETATM   32  C32 BE5 A 501       9.179  25.975   8.051  1.00 16.86     0.036 A 
HETATM   33  C37 BE5 A 501      11.529  26.276   9.859  1.00 17.71     0.034 A 
HETATM   34  C38 BE5 A 501      12.857  25.032   7.900  1.00 16.65     0.068 C 
HETATM   35  C34 BE5 A 501      10.201  26.778  10.259  1.00 19.35     0.005 A 
HETATM   36  C33 BE5 A 501       9.024  26.642   9.383  1.00 18.24     0.005 A 
HETATM   37  C35 BE5 A 501      12.195  24.017   6.922  1.00 16.83     0.149 C 
BRANCH  37  38
HETATM   38  O36 BE5 A 501      11.726  22.798   7.549  1.00 14.03    -0.393 OA
HETATM   39  H36 BE5 A 501      10.907  23.006   7.984  1.00  0.00     0.210 HD
ENDBRANCH  37  38
ENDBRANCH  27  29
ENDBRANCH  14  25
ENDBRANCH  13  14
BRANCH  13  40
HETATM   40  O25 BE5 A 501       9.848  21.800   4.127  1.00 21.98    -0.390 OA
HETATM   41  H25 BE5 A 501      10.077  22.520   3.552  1.00  0.00     0.210 HD
ENDBRANCH  13  40
ENDBRANCH  12  13
BRANCH  12  42
HETATM   42  O24 BE5 A 501       8.318  20.152   3.242  1.00 17.11    -0.390 OA
HETATM   43  H24 BE5 A 501       7.733  19.759   2.604  1.00  0.00     0.210 HD
ENDBRANCH  12  42
ENDBRANCH  11  12
BRANCH  11  44
HETATM   44  C19 BE5 A 501       5.349  20.445   5.226  1.00 17.37     0.250 C 
HETATM   45  O20 BE5 A 501       4.603  19.469   5.493  1.00 18.21    -0.271 OA
HETATM   46  N21 BE5 A 501       4.830  21.652   4.857  1.00 14.53    -0.348 N 
HETATM   47  H21 BE5 A 501       5.477  22.412   4.644  1.00  0.00     0.163 HD
BRANCH  46  48
HETATM   48  C39 BE5 A 501       3.413  21.910   4.751  1.00 14.05     0.143 C 
HETATM   49  C40 BE5 A 501       2.904  22.769   5.900  1.00 15.79    -0.052 A 
HETATM   50  C41 BE5 A 501       1.934  23.731   5.402  1.00 16.99    -0.073 A 
HETATM   51  C42 BE5 A 501       3.256  22.741   7.328  1.00 16.33     0.036 A 
HETATM   52  C47 BE5 A 501       1.274  24.703   6.296  1.00 17.22     0.034 A 
HETATM   53  C48 BE5 A 501       1.778  23.526   3.925  1.00 15.28     0.068 C 
HETATM   54  C44 BE5 A 501       1.631  24.668   7.716  1.00 17.66     0.005 A 
HETATM   55  C43 BE5 A 501       2.604  23.714   8.257  1.00 18.87     0.005 A 
HETATM   56  C45 BE5 A 501       3.074  22.800   3.525  1.00 13.23     0.149 C 
BRANCH  56  57
HETATM   57  O46 BE5 A 501       4.198  23.691   3.304  1.00 13.13    -0.393 OA
HETATM   58  H46 BE5 A 501       4.909  23.175   2.943  1.00  0.00     0.210 HD
ENDBRANCH  56  57
ENDBRANCH  46  48
ENDBRANCH  11  44
ENDBRANCH  10  11
ENDBRANCH   9  10
ENDBRANCH   1   9
TORSDOF 17
ENDMDL
MODEL 12
REMARK VINA RESULT:       0.1      6.204     10.330
REMARK  17 active torsions:
REMARK  status: ('A' for Active; 'I' for Inactive)
REMARK    1  A    between atoms: C01_1  and  C23_41 
REMARK    2  A    between atoms: C07_12  and  C13_24 
REMARK    3  A    between atoms: C13_24  and  O14_27 
REMARK    4  A    between atoms: O14_27  and  C15_28 
REMARK    5  A    between atoms: C15_28  and  C16_30 
REMARK    6  A    between atoms: C15_28  and  C26_48 
REMARK    7  A    between atoms: C16_30  and  C17_32 
REMARK    8  A    between atoms: C16_30  and  O25_46 
REMARK    9  A    between atoms: C17_32  and  C18_34 
REMARK   10  A    between atoms: C17_32  and  O24_44 
REMARK   11  A    between atoms: C18_34  and  C19_36 
REMARK   12  A    between atoms: C18_34  and  O22_40 
REMARK       I    between atoms: C19_36  and  N21_38 
REMARK   13  A    between atoms: N21_38  and  C39_75 
REMARK   14  A    between atoms: O22_40  and  C23_41 
REMARK       I    between atoms: C26_48  and  N28_50 
REMARK   15  A    between atoms: N28_50  and  C29_52 
REMARK   16  A    between atoms: C35_65  and  O36_67 
REMARK   17  A    between atoms: C45_88  and  O46_90 
ROOT
HETATM    1  C01 BE5 A 501      15.850  22.826   0.404  1.00 24.49     0.003 A 
HETATM    2  C02 BE5 A 501      16.130  22.069  -0.830  1.00 24.30    -0.014 A 
HETATM    3  C03 BE5 A 501      17.454  21.570  -1.148  1.00 26.88     0.035 A 
HETATM    4  C04 BE5 A 501      18.579  21.806  -0.230  1.00 26.55     0.077 A 
HETATM    5  C05 BE5 A 501      18.338  22.559   1.020  1.00 25.99     0.133 A 
HETATM    6  C06 BE5 A 501      17.003  23.056   1.326  1.00 25.99     0.158 A 
HETATM    7  F50 BE5 A 501      19.441  22.807   1.956  1.00 29.63    -0.208 F 
HETATM    8  F51 BE5 A 501      16.714  23.830   2.602  1.00 27.35    -0.203 F 
ENDROOT
BRANCH   1   9
HETATM    9  C23 BE5 A 501      14.405  23.297   0.627  1.00 23.01     0.210 C 
BRANCH   9  10
HETATM   10  O22 BE5 A 501      14.386  24.758   0.688  1.00 22.02    -0.369 OA
BRANCH  10  11
HETATM   11  C18 BE5 A 501      13.794  25.453   1.869  1.00 18.95     0.244 C 
BRANCH  11  12
HETATM   12  C17 BE5 A 501      12.406  26.153   1.528  1.00 20.08     0.188 C 
BRANCH  12  13
HETATM   13  C16 BE5 A 501      12.213  26.066   0.086  1.00 20.53     0.188 C 
BRANCH  13  14
HETATM   14  C15 BE5 A 501      12.269  27.422  -0.562  1.00 18.51     0.244 C 
BRANCH  14  15
HETATM   15  O14 BE5 A 501      12.945  28.480   0.315  1.00 19.29    -0.369 OA
BRANCH  15  16
HETATM   16  C13 BE5 A 501      12.260  29.739   0.618  1.00 21.08     0.206 C 
BRANCH  16  17
HETATM   17  C07 BE5 A 501      13.063  30.546   1.632  1.00 21.04    -0.015 A 
HETATM   18  C08 BE5 A 501      13.301  30.094   3.016  1.00 23.02     0.155 A 
HETATM   19  C09 BE5 A 501      14.107  30.940   3.947  1.00 21.73     0.132 A 
HETATM   20  F52 BE5 A 501      12.742  28.795   3.483  1.00 24.30    -0.203 F 
HETATM   21  C10 BE5 A 501      14.665  32.246   3.463  1.00 24.35     0.073 A 
HETATM   22  F49 BE5 A 501      14.346  30.490   5.313  1.00 27.68    -0.208 F 
HETATM   23  C11 BE5 A 501      14.397  32.664   2.053  1.00 23.62     0.011 A 
HETATM   24  C12 BE5 A 501      13.618  31.822   1.183  1.00 22.67     0.040 A 
ENDBRANCH  16  17
ENDBRANCH  15  16
ENDBRANCH  14  15
BRANCH  14  25
HETATM   25  C26 BE5 A 501      13.012  27.221  -1.822  1.00 16.79     0.250 C 
HETATM   26  O27 BE5 A 501      12.803  27.987  -2.797  1.00 20.11    -0.271 OA
HETATM   27  N28 BE5 A 501      13.914  26.210  -1.897  1.00 15.99    -0.348 N 
HETATM   28  H28 BE5 A 501      14.060  25.609  -1.086  1.00  0.00     0.163 HD
BRANCH  27  29
HETATM   29  C29 BE5 A 501      14.675  25.966  -3.105  1.00 16.00     0.143 C 
HETATM   30  C30 BE5 A 501      16.084  25.612  -2.752  1.00 16.23    -0.052 A 
HETATM   31  C31 BE5 A 501      16.622  24.684  -3.750  1.00 17.03    -0.073 A 
HETATM   32  C32 BE5 A 501      16.919  26.052  -1.609  1.00 16.86     0.036 A 
HETATM   33  C37 BE5 A 501      17.997  24.164  -3.648  1.00 17.71     0.034 A 
HETATM   34  C38 BE5 A 501      15.583  24.418  -4.769  1.00 16.65     0.068 C 
HETATM   35  C34 BE5 A 501      18.829  24.601  -2.510  1.00 19.35     0.005 A 
HETATM   36  C33 BE5 A 501      18.319  25.533  -1.489  1.00 18.24     0.005 A 
HETATM   37  C35 BE5 A 501      14.289  24.729  -3.961  1.00 16.83     0.149 C 
BRANCH  37  38
HETATM   38  O36 BE5 A 501      13.890  23.684  -3.040  1.00 14.03    -0.393 OA
HETATM   39  H36 BE5 A 501      13.034  23.380  -3.318  1.00  0.00     0.210 HD
ENDBRANCH  37  38
ENDBRANCH  27  29
ENDBRANCH  14  25
ENDBRANCH  13  14
BRANCH  13  40
HETATM   40  O25 BE5 A 501      10.869  25.492  -0.186  1.00 21.98    -0.390 OA
HETATM   41  H25 BE5 A 501      10.995  24.636  -0.579  1.00  0.00     0.210 HD
ENDBRANCH  13  40
ENDBRANCH  12  13
BRANCH  12  42
HETATM   42  O24 BE5 A 501      11.306  25.481   2.198  1.00 17.11    -0.390 OA
HETATM   43  H24 BE5 A 501      11.656  24.858   2.825  1.00  0.00     0.210 HD
ENDBRANCH  12  42
ENDBRANCH  11  12
BRANCH  11  44
HETATM   44  C19 BE5 A 501      14.810  26.446   2.409  1.00 17.37     0.250 C 
HETATM   45  O20 BE5 A 501      15.059  26.513   3.639  1.00 18.21    -0.271 OA
HETATM   46  N21 BE5 A 501      15.423  27.277   1.516  1.00 14.53    -0.348 N 
HETATM   47  H21 BE5 A 501      15.182  27.188   0.529  1.00  0.00     0.163 HD
BRANCH  46  48
HETATM   48  C39 BE5 A 501      16.394  28.275   1.896  1.00 14.05     0.143 C 
HETATM   49  C40 BE5 A 501      17.822  27.782   1.702  1.00 15.79    -0.052 A 
HETATM   50  C41 BE5 A 501      18.645  28.858   1.176  1.00 16.99    -0.073 A 
HETATM   51  C42 BE5 A 501      18.407  26.457   1.959  1.00 16.33     0.036 A 
HETATM   52  C47 BE5 A 501      20.080  28.666   0.883  1.00 17.22     0.034 A 
HETATM   53  C48 BE5 A 501      17.789  30.078   1.017  1.00 15.28     0.068 C 
HETATM   54  C44 BE5 A 501      20.654  27.344   1.142  1.00 17.66     0.005 A 
HETATM   55  C43 BE5 A 501      19.856  26.233   1.672  1.00 18.87     0.005 A 
HETATM   56  C45 BE5 A 501      16.361  29.507   0.953  1.00 13.23     0.149 C 
BRANCH  56  57
HETATM   57  O46 BE5 A 501      15.979  29.041  -0.367  1.00 13.13    -0.393 OA
HETATM   58  H46 BE5 A 501      16.675  29.276  -0.969  1.00  0.00     0.210 HD
ENDBRANCH  56  57
ENDBRANCH  46  48
ENDBRANCH  11  44
ENDBRANCH  10  11
ENDBRANCH   9  10
ENDBRANCH   1   9
TORSDOF 17
ENDMDL
MODEL 13
REMARK VINA RESULT:       0.1      3.017      6.790
REMARK  17 active torsions:
REMARK  status: ('A' for Active; 'I' for Inactive)
REMARK    1  A    between atoms: C01_1  and  C23_41 
REMARK    2  A    between atoms: C07_12  and  C13_24 
REMARK    3  A    between atoms: C13_24  and  O14_27 
REMARK    4  A    between atoms: O14_27  and  C15_28 
REMARK    5  A    between atoms: C15_28  and  C16_30 
REMARK    6  A    between atoms: C15_28  and  C26_48 
REMARK    7  A    between atoms: C16_30  and  C17_32 
REMARK    8  A    between atoms: C16_30  and  O25_46 
REMARK    9  A    between atoms: C17_32  and  C18_34 
REMARK   10  A    between atoms: C17_32  and  O24_44 
REMARK   11  A    between atoms: C18_34  and  C19_36 
REMARK   12  A    between atoms: C18_34  and  O22_40 
REMARK       I    between atoms: C19_36  and  N21_38 
REMARK   13  A    between atoms: N21_38  and  C39_75 
REMARK   14  A    between atoms: O22_40  and  C23_41 
REMARK       I    between atoms: C26_48  and  N28_50 
REMARK   15  A    between atoms: N28_50  and  C29_52 
REMARK   16  A    between atoms: C35_65  and  O36_67 
REMARK   17  A    between atoms: C45_88  and  O46_90 
ROOT
HETATM    1  C01 BE5 A 501      12.922  28.461   9.532  1.00 24.49     0.003 A 
HETATM    2  C02 BE5 A 501      12.497  27.093   9.181  1.00 24.30    -0.014 A 
HETATM    3  C03 BE5 A 501      11.435  26.406   9.892  1.00 26.88     0.035 A 
HETATM    4  C04 BE5 A 501      10.734  27.067  11.004  1.00 26.55     0.077 A 
HETATM    5  C05 BE5 A 501      11.131  28.441  11.385  1.00 25.99     0.133 A 
HETATM    6  C06 BE5 A 501      12.200  29.117  10.663  1.00 25.99     0.158 A 
HETATM    7  F50 BE5 A 501      10.448  29.126  12.488  1.00 29.63    -0.208 F 
HETATM    8  F51 BE5 A 501      12.634  30.530  11.021  1.00 27.35    -0.203 F 
ENDROOT
BRANCH   1   9
HETATM    9  C23 BE5 A 501      14.056  29.078   8.700  1.00 23.01     0.210 C 
BRANCH   9  10
HETATM   10  O22 BE5 A 501      13.837  28.761   7.290  1.00 22.02    -0.369 OA
BRANCH  10  11
HETATM   11  C18 BE5 A 501      14.896  28.063   6.502  1.00 18.95     0.244 C 
BRANCH  11  12
HETATM   12  C17 BE5 A 501      15.226  28.810   5.137  1.00 20.08     0.188 C 
BRANCH  12  13
HETATM   13  C16 BE5 A 501      14.693  30.162   5.234  1.00 20.53     0.188 C 
BRANCH  13  14
HETATM   14  C15 BE5 A 501      13.660  30.428   4.174  1.00 18.51     0.244 C 
BRANCH  14  15
HETATM   15  O14 BE5 A 501      13.035  29.148   3.610  1.00 19.29    -0.369 OA
BRANCH  15  16
HETATM   16  C13 BE5 A 501      12.142  29.208   2.451  1.00 21.08     0.206 C 
BRANCH  16  17
HETATM   17  C07 BE5 A 501      10.687  29.210   2.904  1.00 21.04    -0.015 A 
HETATM   18  C08 BE5 A 501       9.795  30.376   2.749  1.00 23.02     0.155 A 
HETATM   19  C09 BE5 A 501       8.377  30.294   3.211  1.00 21.73     0.132 A 
HETATM   20  F52 BE5 A 501      10.308  31.629   2.130  1.00 24.30    -0.203 F 
HETATM   21  C10 BE5 A 501       7.874  29.024   3.833  1.00 24.35     0.073 A 
HETATM   22  F49 BE5 A 501       7.496  31.444   3.054  1.00 27.68    -0.208 F 
HETATM   23  C11 BE5 A 501       8.813  27.870   3.970  1.00 23.62     0.011 A 
HETATM   24  C12 BE5 A 501      10.173  27.983   3.511  1.00 22.67     0.040 A 
ENDBRANCH  16  17
ENDBRANCH  15  16
ENDBRANCH  14  15
BRANCH  14  25
HETATM   25  C26 BE5 A 501      12.642  31.275   4.826  1.00 16.79     0.250 C 
HETATM   26  O27 BE5 A 501      12.382  32.411   4.354  1.00 20.11    -0.271 OA
HETATM   27  N28 BE5 A 501      12.000  30.801   5.925  1.00 15.99    -0.348 N 
HETATM   28  H28 BE5 A 501      12.234  29.874   6.278  1.00  0.00     0.163 HD
BRANCH  27  29
HETATM   29  C29 BE5 A 501      10.990  31.585   6.605  1.00 16.00     0.143 C 
HETATM   30  C30 BE5 A 501      10.127  30.688   7.433  1.00 16.23    -0.052 A 
HETATM   31  C31 BE5 A 501       9.665  31.411   8.621  1.00 17.03    -0.073 A 
HETATM   32  C32 BE5 A 501       9.727  29.278   7.210  1.00 16.86     0.036 A 
HETATM   33  C37 BE5 A 501       8.797  30.764   9.620  1.00 17.71     0.034 A 
HETATM   34  C38 BE5 A 501      10.211  32.786   8.590  1.00 16.65     0.068 C 
HETATM   35  C34 BE5 A 501       8.399  29.360   9.399  1.00 19.35     0.005 A 
HETATM   36  C33 BE5 A 501       8.846  28.604   8.216  1.00 18.24     0.005 A 
HETATM   37  C35 BE5 A 501      11.467  32.586   7.691  1.00 16.83     0.149 C 
BRANCH  37  38
HETATM   38  O36 BE5 A 501      12.595  31.975   8.364  1.00 14.03    -0.393 OA
HETATM   39  H36 BE5 A 501      13.061  32.670   8.813  1.00  0.00     0.210 HD
ENDBRANCH  37  38
ENDBRANCH  27  29
ENDBRANCH  14  25
ENDBRANCH  13  14
BRANCH  13  40
HETATM   40  O25 BE5 A 501      15.802  31.133   5.036  1.00 21.98    -0.390 OA
HETATM   41  H25 BE5 A 501      15.420  32.000   4.989  1.00  0.00     0.210 HD
ENDBRANCH  13  40
ENDBRANCH  12  13
BRANCH  12  42
HETATM   42  O24 BE5 A 501      16.660  28.877   4.915  1.00 17.11    -0.390 OA
HETATM   43  H24 BE5 A 501      17.105  28.395   5.603  1.00  0.00     0.210 HD
ENDBRANCH  12  42
ENDBRANCH  11  12
BRANCH  11  44
HETATM   44  C19 BE5 A 501      14.461  26.625   6.269  1.00 17.37     0.250 C 
HETATM   45  O20 BE5 A 501      15.020  25.674   6.871  1.00 18.21    -0.271 OA
HETATM   46  N21 BE5 A 501      13.460  26.402   5.368  1.00 14.53    -0.348 N 
HETATM   47  H21 BE5 A 501      13.042  27.207   4.901  1.00  0.00     0.163 HD
BRANCH  46  48
HETATM   48  C39 BE5 A 501      12.962  25.087   5.041  1.00 14.05     0.143 C 
HETATM   49  C40 BE5 A 501      11.465  24.966   5.294  1.00 15.79    -0.052 A 
HETATM   50  C41 BE5 A 501      10.849  24.190   4.230  1.00 16.99    -0.073 A 
HETATM   51  C42 BE5 A 501      10.646  25.503   6.391  1.00 16.33     0.036 A 
HETATM   52  C47 BE5 A 501       9.399  23.915   4.210  1.00 17.22     0.034 A 
HETATM   53  C48 BE5 A 501      11.917  23.779   3.262  1.00 15.28     0.068 C 
HETATM   54  C44 BE5 A 501       8.591  24.453   5.306  1.00 17.66     0.005 A 
HETATM   55  C43 BE5 A 501       9.175  25.240   6.397  1.00 18.87     0.005 A 
HETATM   56  C45 BE5 A 501      13.044  24.795   3.519  1.00 13.23     0.149 C 
BRANCH  56  57
HETATM   57  O46 BE5 A 501      12.865  26.054   2.820  1.00 13.13    -0.393 OA
HETATM   58  H46 BE5 A 501      13.429  26.042   2.055  1.00  0.00     0.210 HD
ENDBRANCH  56  57
ENDBRANCH  46  48
ENDBRANCH  11  44
ENDBRANCH  10  11
ENDBRANCH   9  10
ENDBRANCH   1   9
TORSDOF 17
ENDMDL
MODEL 14
REMARK VINA RESULT:       0.1      8.199     12.081
REMARK  17 active torsions:
REMARK  status: ('A' for Active; 'I' for Inactive)
REMARK    1  A    between atoms: C01_1  and  C23_41 
REMARK    2  A    between atoms: C07_12  and  C13_24 
REMARK    3  A    between atoms: C13_24  and  O14_27 
REMARK    4  A    between atoms: O14_27  and  C15_28 
REMARK    5  A    between atoms: C15_28  and  C16_30 
REMARK    6  A    between atoms: C15_28  and  C26_48 
REMARK    7  A    between atoms: C16_30  and  C17_32 
REMARK    8  A    between atoms: C16_30  and  O25_46 
REMARK    9  A    between atoms: C17_32  and  C18_34 
REMARK   10  A    between atoms: C17_32  and  O24_44 
REMARK   11  A    between atoms: C18_34  and  C19_36 
REMARK   12  A    between atoms: C18_34  and  O22_40 
REMARK       I    between atoms: C19_36  and  N21_38 
REMARK   13  A    between atoms: N21_38  and  C39_75 
REMARK   14  A    between atoms: O22_40  and  C23_41 
REMARK       I    between atoms: C26_48  and  N28_50 
REMARK   15  A    between atoms: N28_50  and  C29_52 
REMARK   16  A    between atoms: C35_65  and  O36_67 
REMARK   17  A    between atoms: C45_88  and  O46_90 
ROOT
HETATM    1  C01 BE5 A 501      13.139  23.402   4.371  1.00 24.49     0.003 A 
HETATM    2  C02 BE5 A 501      14.393  22.728   4.756  1.00 24.30    -0.014 A 
HETATM    3  C03 BE5 A 501      14.415  21.588   5.653  1.00 26.88     0.035 A 
HETATM    4  C04 BE5 A 501      13.162  21.059   6.215  1.00 26.55     0.077 A 
HETATM    5  C05 BE5 A 501      11.883  21.707   5.850  1.00 25.99     0.133 A 
HETATM    6  C06 BE5 A 501      11.877  22.852   4.949  1.00 25.99     0.158 A 
HETATM    7  F50 BE5 A 501      10.618  21.198   6.394  1.00 29.63    -0.208 F 
HETATM    8  F51 BE5 A 501      10.584  23.542   4.547  1.00 27.35    -0.203 F 
ENDROOT
BRANCH   1   9
HETATM    9  C23 BE5 A 501      13.251  24.595   3.410  1.00 23.01     0.210 C 
BRANCH   9  10
HETATM   10  O22 BE5 A 501      14.255  24.292   2.391  1.00 22.02    -0.369 OA
BRANCH  10  11
HETATM   11  C18 BE5 A 501      15.404  25.219   2.168  1.00 18.95     0.244 C 
BRANCH  11  12
HETATM   12  C17 BE5 A 501      15.644  25.525   0.625  1.00 20.08     0.188 C 
BRANCH  12  13
HETATM   13  C16 BE5 A 501      14.342  25.543  -0.028  1.00 20.53     0.188 C 
BRANCH  13  14
HETATM   14  C15 BE5 A 501      14.358  24.764  -1.314  1.00 18.51     0.244 C 
BRANCH  14  15
HETATM   15  O14 BE5 A 501      15.640  23.949  -1.507  1.00 19.29    -0.369 OA
BRANCH  15  16
HETATM   16  C13 BE5 A 501      15.710  22.911  -2.539  1.00 21.08     0.206 C 
BRANCH  16  17
HETATM   17  C07 BE5 A 501      15.804  21.532  -1.895  1.00 21.04    -0.015 A 
HETATM   18  C08 BE5 A 501      14.715  20.538  -1.955  1.00 23.02     0.155 A 
HETATM   19  C09 BE5 A 501      14.890  19.204  -1.306  1.00 21.73     0.132 A 
HETATM   20  F52 BE5 A 501      13.447  20.864  -2.662  1.00 24.30    -0.203 F 
HETATM   21  C10 BE5 A 501      16.174  18.889  -0.597  1.00 24.35     0.073 A 
HETATM   22  F49 BE5 A 501      13.815  18.221  -1.368  1.00 27.68    -0.208 F 
HETATM   23  C11 BE5 A 501      17.249  19.927  -0.562  1.00 23.62     0.011 A 
HETATM   24  C12 BE5 A 501      17.048  21.202  -1.201  1.00 22.67     0.040 A 
ENDBRANCH  16  17
ENDBRANCH  15  16
ENDBRANCH  14  15
BRANCH  14  25
HETATM   25  C26 BE5 A 501      13.173  23.886  -1.253  1.00 16.79     0.250 C 
HETATM   26  O27 BE5 A 501      12.397  23.818  -2.241  1.00 20.11    -0.271 OA
HETATM   27  N28 BE5 A 501      12.949  23.163  -0.126  1.00 15.99    -0.348 N 
HETATM   28  H28 BE5 A 501      13.601  23.242   0.654  1.00  0.00     0.163 HD
BRANCH  27  29
HETATM   29  C29 BE5 A 501      11.805  22.283  -0.009  1.00 16.00     0.143 C 
HETATM   30  C30 BE5 A 501      12.048  21.280   1.073  1.00 16.23    -0.052 A 
HETATM   31  C31 BE5 A 501      10.777  20.926   1.709  1.00 17.03    -0.073 A 
HETATM   32  C32 BE5 A 501      13.316  20.664   1.534  1.00 16.86     0.036 A 
HETATM   33  C37 BE5 A 501      10.720  19.956   2.816  1.00 17.71     0.034 A 
HETATM   34  C38 BE5 A 501       9.686  21.683   1.056  1.00 16.65     0.068 C 
HETATM   35  C34 BE5 A 501      11.980  19.343   3.277  1.00 19.35     0.005 A 
HETATM   36  C33 BE5 A 501      13.276  19.676   2.660  1.00 18.24     0.005 A 
HETATM   37  C35 BE5 A 501      10.470  22.901   0.485  1.00 16.83     0.149 C 
BRANCH  37  38
HETATM   38  O36 BE5 A 501      10.808  23.911   1.468  1.00 14.03    -0.393 OA
HETATM   39  H36 BE5 A 501      11.021  23.454   2.273  1.00  0.00     0.210 HD
ENDBRANCH  37  38
ENDBRANCH  27  29
ENDBRANCH  14  25
ENDBRANCH  13  14
BRANCH  13  40
HETATM   40  O25 BE5 A 501      13.986  26.949  -0.356  1.00 21.98    -0.390 OA
HETATM   41  H25 BE5 A 501      13.508  27.304   0.383  1.00  0.00     0.210 HD
ENDBRANCH  13  40
ENDBRANCH  12  13
BRANCH  12  42
HETATM   42  O24 BE5 A 501      16.286  26.816   0.446  1.00 17.11    -0.390 OA
HETATM   43  H24 BE5 A 501      16.203  27.083  -0.463  1.00  0.00     0.210 HD
ENDBRANCH  12  42
ENDBRANCH  11  12
BRANCH  11  44
HETATM   44  C19 BE5 A 501      16.641  24.629   2.826  1.00 17.37     0.250 C 
HETATM   45  O20 BE5 A 501      17.266  25.262   3.715  1.00 18.21    -0.271 OA
HETATM   46  N21 BE5 A 501      17.061  23.401   2.404  1.00 14.53    -0.348 N 
HETATM   47  H21 BE5 A 501      16.523  22.930   1.676  1.00  0.00     0.163 HD
BRANCH  46  48
HETATM   48  C39 BE5 A 501      18.227  22.734   2.933  1.00 14.05     0.143 C 
HETATM   49  C40 BE5 A 501      18.084  21.218   2.889  1.00 15.79    -0.052 A 
HETATM   50  C41 BE5 A 501      19.350  20.617   2.505  1.00 16.99    -0.073 A 
HETATM   51  C42 BE5 A 501      16.912  20.372   3.162  1.00 16.33     0.036 A 
HETATM   52  C47 BE5 A 501      19.507  19.154   2.375  1.00 17.22     0.034 A 
HETATM   53  C48 BE5 A 501      20.352  21.712   2.293  1.00 15.28     0.068 C 
HETATM   54  C44 BE5 A 501      18.336  18.320   2.649  1.00 17.66     0.005 A 
HETATM   55  C43 BE5 A 501      17.042  18.888   3.039  1.00 18.87     0.005 A 
HETATM   56  C45 BE5 A 501      19.477  22.953   2.040  1.00 13.23     0.149 C 
BRANCH  56  57
HETATM   57  O46 BE5 A 501      19.023  23.075   0.667  1.00 13.13    -0.393 OA
HETATM   58  H46 BE5 A 501      19.560  22.503   0.134  1.00  0.00     0.210 HD
ENDBRANCH  56  57
ENDBRANCH  46  48
ENDBRANCH  11  44
ENDBRANCH  10  11
ENDBRANCH   9  10
ENDBRANCH   1   9
TORSDOF 17
ENDMDL
MODEL 15
REMARK VINA RESULT:       0.1      5.147     10.073
REMARK  17 active torsions:
REMARK  status: ('A' for Active; 'I' for Inactive)
REMARK    1  A    between atoms: C01_1  and  C23_41 
REMARK    2  A    between atoms: C07_12  and  C13_24 
REMARK    3  A    between atoms: C13_24  and  O14_27 
REMARK    4  A    between atoms: O14_27  and  C15_28 
REMARK    5  A    between atoms: C15_28  and  C16_30 
REMARK    6  A    between atoms: C15_28  and  C26_48 
REMARK    7  A    between atoms: C16_30  and  C17_32 
REMARK    8  A    between atoms: C16_30  and  O25_46 
REMARK    9  A    between atoms: C17_32  and  C18_34 
REMARK   10  A    between atoms: C17_32  and  O24_44 
REMARK   11  A    between atoms: C18_34  and  C19_36 
REMARK   12  A    between atoms: C18_34  and  O22_40 
REMARK       I    between atoms: C19_36  and  N21_38 
REMARK   13  A    between atoms: N21_38  and  C39_75 
REMARK   14  A    between atoms: O22_40  and  C23_41 
REMARK       I    between atoms: C26_48  and  N28_50 
REMARK   15  A    between atoms: N28_50  and  C29_52 
REMARK   16  A    between atoms: C35_65  and  O36_67 
REMARK   17  A    between atoms: C45_88  and  O46_90 
ROOT
HETATM    1  C01 BE5 A 501      11.150  32.364  -3.049  1.00 24.49     0.003 A 
HETATM    2  C02 BE5 A 501      10.353  32.994  -4.117  1.00 24.30    -0.014 A 
HETATM    3  C03 BE5 A 501      10.385  34.423  -4.366  1.00 26.88     0.035 A 
HETATM    4  C04 BE5 A 501      11.232  35.303  -3.546  1.00 26.55     0.077 A 
HETATM    5  C05 BE5 A 501      12.048  34.708  -2.465  1.00 25.99     0.133 A 
HETATM    6  C06 BE5 A 501      12.005  33.271  -2.226  1.00 25.99     0.158 A 
HETATM    7  F50 BE5 A 501      12.904  35.561  -1.633  1.00 29.63    -0.208 F 
HETATM    8  F51 BE5 A 501      12.832  32.621  -1.129  1.00 27.35    -0.203 F 
ENDROOT
BRANCH   1   9
HETATM    9  C23 BE5 A 501      11.031  30.841  -2.890  1.00 23.01     0.210 C 
BRANCH   9  10
HETATM   10  O22 BE5 A 501       9.642  30.503  -2.580  1.00 22.02    -0.369 OA
BRANCH  10  11
HETATM   11  C18 BE5 A 501       9.291  29.901  -1.260  1.00 18.95     0.244 C 
BRANCH  11  12
HETATM   12  C17 BE5 A 501       7.722  29.899  -0.994  1.00 20.08     0.188 C 
BRANCH  12  13
HETATM   13  C16 BE5 A 501       7.119  30.857  -1.911  1.00 20.53     0.188 C 
BRANCH  13  14
HETATM   14  C15 BE5 A 501       6.029  31.650  -1.244  1.00 18.51     0.244 C 
BRANCH  14  15
HETATM   15  O14 BE5 A 501       6.529  32.478  -0.056  1.00 19.29    -0.369 OA
BRANCH  15  16
HETATM   16  C13 BE5 A 501       5.633  32.787   1.061  1.00 21.08     0.206 C 
BRANCH  16  17
HETATM   17  C07 BE5 A 501       5.571  34.293   1.288  1.00 21.04    -0.015 A 
HETATM   18  C08 BE5 A 501       5.573  34.907   2.630  1.00 23.02     0.155 A 
HETATM   19  C09 BE5 A 501       5.520  36.394   2.768  1.00 21.73     0.132 A 
HETATM   20  F52 BE5 A 501       5.633  34.047   3.843  1.00 24.30    -0.203 F 
HETATM   21  C10 BE5 A 501       5.460  37.248   1.536  1.00 24.35     0.073 A 
HETATM   22  F49 BE5 A 501       5.526  36.999   4.093  1.00 27.68    -0.208 F 
HETATM   23  C11 BE5 A 501       5.459  36.582   0.198  1.00 23.62     0.011 A 
HETATM   24  C12 BE5 A 501       5.515  35.147   0.102  1.00 22.67     0.040 A 
ENDBRANCH  16  17
ENDBRANCH  15  16
ENDBRANCH  14  15
BRANCH  14  25
HETATM   25  C26 BE5 A 501       5.475  32.518  -2.302  1.00 16.79     0.250 C 
HETATM   26  O27 BE5 A 501       4.245  32.477  -2.561  1.00 20.11    -0.271 OA
HETATM   27  N28 BE5 A 501       6.312  33.350  -2.973  1.00 15.99    -0.348 N 
HETATM   28  H28 BE5 A 501       7.304  33.359  -2.735  1.00  0.00     0.163 HD
BRANCH  27  29
HETATM   29  C29 BE5 A 501       5.826  34.226  -4.019  1.00 16.00     0.143 C 
HETATM   30  C30 BE5 A 501       6.672  35.457  -4.081  1.00 16.23    -0.052 A 
HETATM   31  C31 BE5 A 501       6.733  35.943  -5.462  1.00 17.03    -0.073 A 
HETATM   32  C32 BE5 A 501       7.394  36.173  -3.001  1.00 16.86     0.036 A 
HETATM   33  C37 BE5 A 501       7.505  37.146  -5.816  1.00 17.71     0.034 A 
HETATM   34  C38 BE5 A 501       5.929  35.047  -6.322  1.00 16.65     0.068 C 
HETATM   35  C34 BE5 A 501       8.225  37.858  -4.743  1.00 19.35     0.005 A 
HETATM   36  C33 BE5 A 501       8.186  37.397  -3.344  1.00 18.24     0.005 A 
HETATM   37  C35 BE5 A 501       5.952  33.733  -5.486  1.00 16.83     0.149 C 
BRANCH  37  38
HETATM   38  O36 BE5 A 501       7.189  32.986  -5.577  1.00 14.03    -0.393 OA
HETATM   39  H36 BE5 A 501       7.501  32.856  -4.689  1.00  0.00     0.210 HD
ENDBRANCH  37  38
ENDBRANCH  27  29
ENDBRANCH  14  25
ENDBRANCH  13  14
BRANCH  13  40
HETATM   40  O25 BE5 A 501       6.508  30.118  -3.047  1.00 21.98    -0.390 OA
HETATM   41  H25 BE5 A 501       6.978  30.363  -3.835  1.00  0.00     0.210 HD
ENDBRANCH  13  40
ENDBRANCH  12  13
BRANCH  12  42
HETATM   42  O24 BE5 A 501       7.155  28.584  -1.236  1.00 17.11    -0.390 OA
HETATM   43  H24 BE5 A 501       7.430  27.993  -0.545  1.00  0.00     0.210 HD
ENDBRANCH  12  42
ENDBRANCH  11  12
BRANCH  11  44
HETATM   44  C19 BE5 A 501      10.049  30.640  -0.170  1.00 17.37     0.250 C 
HETATM   45  O20 BE5 A 501      11.092  30.155   0.337  1.00 18.21    -0.271 OA
HETATM   46  N21 BE5 A 501       9.545  31.836   0.254  1.00 14.53    -0.348 N 
HETATM   47  H21 BE5 A 501       8.693  32.185  -0.184  1.00  0.00     0.163 HD
BRANCH  46  48
HETATM   48  C39 BE5 A 501      10.156  32.633   1.291  1.00 14.05     0.143 C 
HETATM   49  C40 BE5 A 501       9.767  34.102   1.185  1.00 15.79    -0.052 A 
HETATM   50  C41 BE5 A 501       9.540  34.647   2.512  1.00 16.99    -0.073 A 
HETATM   51  C42 BE5 A 501       9.602  34.951  -0.005  1.00 16.33     0.036 A 
HETATM   52  C47 BE5 A 501       9.143  36.055   2.717  1.00 17.22     0.034 A 
HETATM   53  C48 BE5 A 501       9.779  33.562   3.519  1.00 15.28     0.068 C 
HETATM   54  C44 BE5 A 501       8.982  36.893   1.527  1.00 17.66     0.005 A 
HETATM   55  C43 BE5 A 501       9.201  36.380   0.171  1.00 18.87     0.005 A 
HETATM   56  C45 BE5 A 501       9.614  32.271   2.700  1.00 13.23     0.149 C 
BRANCH  56  57
HETATM   57  O46 BE5 A 501       8.233  31.851   2.545  1.00 13.13    -0.393 OA
HETATM   58  H46 BE5 A 501       7.901  32.243   1.746  1.00  0.00     0.210 HD
ENDBRANCH  56  57
ENDBRANCH  46  48
ENDBRANCH  11  44
ENDBRANCH  10  11
ENDBRANCH   9  10
ENDBRANCH   1   9
TORSDOF 17
ENDMDL
MODEL 16
REMARK VINA RESULT:       0.1      9.897     13.602
REMARK  17 active torsions:
REMARK  status: ('A' for Active; 'I' for Inactive)
REMARK    1  A    between atoms: C01_1  and  C23_41 
REMARK    2  A    between atoms: C07_12  and  C13_24 
REMARK    3  A    between atoms: C13_24  and  O14_27 
REMARK    4  A    between atoms: O14_27  and  C15_28 
REMARK    5  A    between atoms: C15_28  and  C16_30 
REMARK    6  A    between atoms: C15_28  and  C26_48 
REMARK    7  A    between atoms: C16_30  and  C17_32 
REMARK    8  A    between atoms: C16_30  and  O25_46 
REMARK    9  A    between atoms: C17_32  and  C18_34 
REMARK   10  A    between atoms: C17_32  and  O24_44 
REMARK   11  A    between atoms: C18_34  and  C19_36 
REMARK   12  A    between atoms: C18_34  and  O22_40 
REMARK       I    between atoms: C19_36  and  N21_38 
REMARK   13  A    between atoms: N21_38  and  C39_75 
REMARK   14  A    between atoms: O22_40  and  C23_41 
REMARK       I    between atoms: C26_48  and  N28_50 
REMARK   15  A    between atoms: N28_50  and  C29_52 
REMARK   16  A    between atoms: C35_65  and  O36_67 
REMARK   17  A    between atoms: C45_88  and  O46_90 
ROOT
HETATM    1  C01 BE5 A 501      16.520  26.426  -0.334  1.00 24.49     0.003 A 
HETATM    2  C02 BE5 A 501      15.294  25.629  -0.526  1.00 24.30    -0.014 A 
HETATM    3  C03 BE5 A 501      14.593  25.581  -1.795  1.00 26.88     0.035 A 
HETATM    4  C04 BE5 A 501      15.094  26.339  -2.952  1.00 26.55     0.077 A 
HETATM    5  C05 BE5 A 501      16.324  27.149  -2.800  1.00 25.99     0.133 A 
HETATM    6  C06 BE5 A 501      17.016  27.188  -1.519  1.00 25.99     0.158 A 
HETATM    7  F50 BE5 A 501      16.848  27.912  -3.938  1.00 29.63    -0.208 F 
HETATM    8  F51 BE5 A 501      18.284  28.004  -1.324  1.00 27.35    -0.203 F 
ENDROOT
BRANCH   1   9
HETATM    9  C23 BE5 A 501      17.170  26.389   1.057  1.00 23.01     0.210 C 
BRANCH   9  10
HETATM   10  O22 BE5 A 501      17.457  24.999   1.410  1.00 22.02    -0.369 OA
BRANCH  10  11
HETATM   11  C18 BE5 A 501      16.855  24.395   2.636  1.00 18.95     0.244 C 
BRANCH  11  12
HETATM   12  C17 BE5 A 501      17.925  24.180   3.793  1.00 20.08     0.188 C 
BRANCH  12  13
HETATM   13  C16 BE5 A 501      19.243  24.438   3.228  1.00 20.53     0.188 C 
BRANCH  13  14
HETATM   14  C15 BE5 A 501      20.046  23.174   3.098  1.00 18.51     0.244 C 
BRANCH  14  15
HETATM   15  O14 BE5 A 501      19.204  21.906   3.276  1.00 19.29    -0.369 OA
BRANCH  15  16
HETATM   16  C13 BE5 A 501      19.543  20.932   4.316  1.00 21.08     0.206 C 
BRANCH  16  17
HETATM   17  C07 BE5 A 501      18.529  19.793   4.324  1.00 21.04    -0.015 A 
HETATM   18  C08 BE5 A 501      17.105  19.983   4.661  1.00 23.02     0.155 A 
HETATM   19  C09 BE5 A 501      16.173  18.816   4.636  1.00 21.73     0.132 A 
HETATM   20  F52 BE5 A 501      16.599  21.335   5.022  1.00 24.30    -0.203 F 
HETATM   21  C10 BE5 A 501      16.698  17.459   4.270  1.00 24.35     0.073 A 
HETATM   22  F49 BE5 A 501      14.766  19.005   4.966  1.00 27.68    -0.208 F 
HETATM   23  C11 BE5 A 501      18.147  17.314   3.936  1.00 23.62     0.011 A 
HETATM   24  C12 BE5 A 501      19.017  18.461   3.968  1.00 22.67     0.040 A 
ENDBRANCH  16  17
ENDBRANCH  15  16
ENDBRANCH  14  15
BRANCH  14  25
HETATM   25  C26 BE5 A 501      20.644  23.230   1.749  1.00 16.79     0.250 C 
HETATM   26  O27 BE5 A 501      21.256  22.228   1.297  1.00 20.11    -0.271 OA
HETATM   27  N28 BE5 A 501      20.514  24.368   1.021  1.00 15.99    -0.348 N 
HETATM   28  H28 BE5 A 501      20.010  25.160   1.418  1.00  0.00     0.163 HD
BRANCH  27  29
HETATM   29  C29 BE5 A 501      21.078  24.481  -0.309  1.00 16.00     0.143 C 
HETATM   30  C30 BE5 A 501      19.999  24.313  -1.331  1.00 16.23    -0.052 A 
HETATM   31  C31 BE5 A 501      20.314  25.118  -2.513  1.00 17.03    -0.073 A 
HETATM   32  C32 BE5 A 501      18.759  23.501  -1.283  1.00 16.86     0.036 A 
HETATM   33  C37 BE5 A 501      19.415  25.145  -3.681  1.00 17.71     0.034 A 
HETATM   34  C38 BE5 A 501      21.597  25.819  -2.291  1.00 16.65     0.068 C 
HETATM   35  C34 BE5 A 501      18.180  24.339  -3.634  1.00 19.35     0.005 A 
HETATM   36  C33 BE5 A 501      17.834  23.518  -2.461  1.00 18.24     0.005 A 
HETATM   37  C35 BE5 A 501      21.646  25.861  -0.734  1.00 16.83     0.149 C 
BRANCH  37  38
HETATM   38  O36 BE5 A 501      20.798  26.872  -0.135  1.00 14.03    -0.393 OA
HETATM   39  H36 BE5 A 501      21.177  27.087   0.709  1.00  0.00     0.210 HD
ENDBRANCH  37  38
ENDBRANCH  27  29
ENDBRANCH  14  25
ENDBRANCH  13  14
BRANCH  13  40
HETATM   40  O25 BE5 A 501      19.986  25.352   4.136  1.00 21.98    -0.390 OA
HETATM   41  H25 BE5 A 501      19.449  25.491   4.906  1.00  0.00     0.210 HD
ENDBRANCH  13  40
ENDBRANCH  12  13
BRANCH  12  42
HETATM   42  O24 BE5 A 501      17.690  25.098   4.895  1.00 17.11    -0.390 OA
HETATM   43  H24 BE5 A 501      18.462  25.637   5.022  1.00  0.00     0.210 HD
ENDBRANCH  12  42
ENDBRANCH  11  12
BRANCH  11  44
HETATM   44  C19 BE5 A 501      16.170  23.094   2.251  1.00 17.37     0.250 C 
HETATM   45  O20 BE5 A 501      14.990  22.853   2.608  1.00 18.21    -0.271 OA
HETATM   46  N21 BE5 A 501      16.889  22.189   1.524  1.00 14.53    -0.348 N 
HETATM   47  H21 BE5 A 501      17.845  22.428   1.263  1.00  0.00     0.163 HD
BRANCH  46  48
HETATM   48  C39 BE5 A 501      16.366  20.910   1.106  1.00 14.05     0.143 C 
HETATM   49  C40 BE5 A 501      15.789  20.964  -0.303  1.00 15.79    -0.052 A 
HETATM   50  C41 BE5 A 501      16.134  19.748  -1.021  1.00 16.99    -0.073 A 
HETATM   51  C42 BE5 A 501      14.999  22.016  -0.960  1.00 16.33     0.036 A 
HETATM   52  C47 BE5 A 501      15.712  19.525  -2.418  1.00 17.22     0.034 A 
HETATM   53  C48 BE5 A 501      16.935  18.868  -0.109  1.00 15.28     0.068 C 
HETATM   54  C44 BE5 A 501      14.925  20.577  -3.065  1.00 17.66     0.005 A 
HETATM   55  C43 BE5 A 501      14.557  21.817  -2.374  1.00 18.87     0.005 A 
HETATM   56  C45 BE5 A 501      17.486  19.848   0.941  1.00 13.23     0.149 C 
BRANCH  56  57
HETATM   57  O46 BE5 A 501      18.689  20.540   0.519  1.00 13.13    -0.393 OA
HETATM   58  H46 BE5 A 501      19.053  20.064  -0.218  1.00  0.00     0.210 HD
ENDBRANCH  56  57
ENDBRANCH  46  48
ENDBRANCH  11  44
ENDBRANCH  10  11
ENDBRANCH   9  10
ENDBRANCH   1   9
TORSDOF 17
ENDMDL
MODEL 17
REMARK VINA RESULT:       0.1      7.915     11.853
REMARK  17 active torsions:
REMARK  status: ('A' for Active; 'I' for Inactive)
REMARK    1  A    between atoms: C01_1  and  C23_41 
REMARK    2  A    between atoms: C07_12  and  C13_24 
REMARK    3  A    between atoms: C13_24  and  O14_27 
REMARK    4  A    between atoms: O14_27  and  C15_28 
REMARK    5  A    between atoms: C15_28  and  C16_30 
REMARK    6  A    between atoms: C15_28  and  C26_48 
REMARK    7  A    between atoms: C16_30  and  C17_32 
REMARK    8  A    between atoms: C16_30  and  O25_46 
REMARK    9  A    between atoms: C17_32  and  C18_34 
REMARK   10  A    between atoms: C17_32  and  O24_44 
REMARK   11  A    between atoms: C18_34  and  C19_36 
REMARK   12  A    between atoms: C18_34  and  O22_40 
REMARK       I    between atoms: C19_36  and  N21_38 
REMARK   13  A    between atoms: N21_38  and  C39_75 
REMARK   14  A    between atoms: O22_40  and  C23_41 
REMARK       I    between atoms: C26_48  and  N28_50 
REMARK   15  A    between atoms: N28_50  and  C29_52 
REMARK   16  A    between atoms: C35_65  and  O36_67 
REMARK   17  A    between atoms: C45_88  and  O46_90 
ROOT
HETATM    1  C01 BE5 A 501       9.736  25.916  -1.376  1.00 24.49     0.003 A 
HETATM    2  C02 BE5 A 501       8.557  25.035  -1.477  1.00 24.30    -0.014 A 
HETATM    3  C03 BE5 A 501       7.842  24.839  -2.724  1.00 26.88     0.035 A 
HETATM    4  C04 BE5 A 501       8.281  25.524  -3.950  1.00 26.55     0.077 A 
HETATM    5  C05 BE5 A 501       9.461  26.415  -3.890  1.00 25.99     0.133 A 
HETATM    6  C06 BE5 A 501      10.168  26.603  -2.630  1.00 25.99     0.158 A 
HETATM    7  F50 BE5 A 501       9.923  27.109  -5.097  1.00 29.63    -0.208 F 
HETATM    8  F51 BE5 A 501      11.387  27.505  -2.528  1.00 27.35    -0.203 F 
ENDROOT
BRANCH   1   9
HETATM    9  C23 BE5 A 501      10.407  26.035   0.000  1.00 23.01     0.210 C 
BRANCH   9  10
HETATM   10  O22 BE5 A 501      10.366  24.732   0.663  1.00 22.02    -0.369 OA
BRANCH  10  11
HETATM   11  C18 BE5 A 501       9.784  24.601   2.031  1.00 18.95     0.244 C 
BRANCH  11  12
HETATM   12  C17 BE5 A 501      10.792  23.918   3.055  1.00 20.08     0.188 C 
BRANCH  12  13
HETATM   13  C16 BE5 A 501      12.132  24.029   2.494  1.00 20.53     0.188 C 
BRANCH  13  14
HETATM   14  C15 BE5 A 501      12.722  22.678   2.198  1.00 18.51     0.244 C 
BRANCH  14  15
HETATM   15  O14 BE5 A 501      11.662  21.596   1.973  1.00 19.29    -0.369 OA
BRANCH  15  16
HETATM   16  C13 BE5 A 501      12.059  20.203   1.757  1.00 21.08     0.206 C 
BRANCH  16  17
HETATM   17  C07 BE5 A 501      11.917  19.835   0.284  1.00 21.04    -0.015 A 
HETATM   18  C08 BE5 A 501      13.072  19.628  -0.610  1.00 23.02     0.155 A 
HETATM   19  C09 BE5 A 501      12.849  19.259  -2.041  1.00 21.73     0.132 A 
HETATM   20  F52 BE5 A 501      14.457  19.782  -0.087  1.00 24.30    -0.203 F 
HETATM   21  C10 BE5 A 501      11.447  19.106  -2.554  1.00 24.35     0.073 A 
HETATM   22  F49 BE5 A 501      13.990  19.051  -2.923  1.00 27.68    -0.208 F 
HETATM   23  C11 BE5 A 501      10.308  19.327  -1.612  1.00 23.62     0.011 A 
HETATM   24  C12 BE5 A 501      10.561  19.678  -0.238  1.00 22.67     0.040 A 
ENDBRANCH  16  17
ENDBRANCH  15  16
ENDBRANCH  14  15
BRANCH  14  25
HETATM   25  C26 BE5 A 501      13.550  22.871   0.991  1.00 16.79     0.250 C 
HETATM   26  O27 BE5 A 501      14.784  22.634   1.038  1.00 20.11    -0.271 OA
HETATM   27  N28 BE5 A 501      12.954  23.296  -0.152  1.00 15.99    -0.348 N 
HETATM   28  H28 BE5 A 501      11.951  23.476  -0.155  1.00  0.00     0.163 HD
BRANCH  27  29
HETATM   29  C29 BE5 A 501      13.715  23.500  -1.368  1.00 16.00     0.143 C 
HETATM   30  C30 BE5 A 501      12.797  23.474  -2.548  1.00 16.23    -0.052 A 
HETATM   31  C31 BE5 A 501      13.312  24.366  -3.590  1.00 17.03    -0.073 A 
HETATM   32  C32 BE5 A 501      11.538  22.720  -2.760  1.00 16.86     0.036 A 
HETATM   33  C37 BE5 A 501      12.601  24.538  -4.869  1.00 17.71     0.034 A 
HETATM   34  C38 BE5 A 501      14.570  24.984  -3.116  1.00 16.65     0.068 C 
HETATM   35  C34 BE5 A 501      11.347  23.790  -5.081  1.00 19.35     0.005 A 
HETATM   36  C33 BE5 A 501      10.801  22.885  -4.054  1.00 18.24     0.005 A 
HETATM   37  C35 BE5 A 501      14.385  24.885  -1.573  1.00 16.83     0.149 C 
BRANCH  37  38
HETATM   38  O36 BE5 A 501      13.490  25.877  -1.011  1.00 14.03    -0.393 OA
HETATM   39  H36 BE5 A 501      13.397  25.674  -0.087  1.00  0.00     0.210 HD
ENDBRANCH  37  38
ENDBRANCH  27  29
ENDBRANCH  14  25
ENDBRANCH  13  14
BRANCH  13  40
HETATM   40  O25 BE5 A 501      13.015  24.699   3.486  1.00 21.98    -0.390 OA
HETATM   41  H25 BE5 A 501      12.583  24.656   4.330  1.00  0.00     0.210 HD
ENDBRANCH  13  40
ENDBRANCH  12  13
BRANCH  12  42
HETATM   42  O24 BE5 A 501      10.756  24.587   4.344  1.00 17.11    -0.390 OA
HETATM   43  H24 BE5 A 501      10.152  25.319   4.300  1.00  0.00     0.210 HD
ENDBRANCH  12  42
ENDBRANCH  11  12
BRANCH  11  44
HETATM   44  C19 BE5 A 501       8.473  23.838   1.933  1.00 17.37     0.250 C 
HETATM   45  O20 BE5 A 501       7.375  24.443   1.849  1.00 18.21    -0.271 OA
HETATM   46  N21 BE5 A 501       8.529  22.474   1.962  1.00 14.53    -0.348 N 
HETATM   47  H21 BE5 A 501       9.444  22.029   2.038  1.00  0.00     0.163 HD
BRANCH  46  48
HETATM   48  C39 BE5 A 501       7.361  21.628   1.893  1.00 14.05     0.143 C 
HETATM   49  C40 BE5 A 501       7.163  21.045   0.500  1.00 15.79    -0.052 A 
HETATM   50  C41 BE5 A 501       6.723  19.664   0.604  1.00 16.99    -0.073 A 
HETATM   51  C42 BE5 A 501       7.355  21.667  -0.820  1.00 16.33     0.036 A 
HETATM   52  C47 BE5 A 501       6.456  18.842  -0.593  1.00 17.22     0.034 A 
HETATM   53  C48 BE5 A 501       6.616  19.307   2.056  1.00 15.28     0.068 C 
HETATM   54  C44 BE5 A 501       6.649  19.468  -1.902  1.00 17.66     0.005 A 
HETATM   55  C43 BE5 A 501       7.091  20.858  -2.049  1.00 18.87     0.005 A 
HETATM   56  C45 BE5 A 501       7.522  20.342   2.747  1.00 13.23     0.149 C 
BRANCH  56  57
HETATM   57  O46 BE5 A 501       8.928  19.983   2.740  1.00 13.13    -0.393 OA
HETATM   58  H46 BE5 A 501       9.365  20.539   2.106  1.00  0.00     0.210 HD
ENDBRANCH  56  57
ENDBRANCH  46  48
ENDBRANCH  11  44
ENDBRANCH  10  11
ENDBRANCH   9  10
ENDBRANCH   1   9
TORSDOF 17
ENDMDL
MODEL 18
REMARK VINA RESULT:       0.1      2.668      5.417
REMARK  17 active torsions:
REMARK  status: ('A' for Active; 'I' for Inactive)
REMARK    1  A    between atoms: C01_1  and  C23_41 
REMARK    2  A    between atoms: C07_12  and  C13_24 
REMARK    3  A    between atoms: C13_24  and  O14_27 
REMARK    4  A    between atoms: O14_27  and  C15_28 
REMARK    5  A    between atoms: C15_28  and  C16_30 
REMARK    6  A    between atoms: C15_28  and  C26_48 
REMARK    7  A    between atoms: C16_30  and  C17_32 
REMARK    8  A    between atoms: C16_30  and  O25_46 
REMARK    9  A    between atoms: C17_32  and  C18_34 
REMARK   10  A    between atoms: C17_32  and  O24_44 
REMARK   11  A    between atoms: C18_34  and  C19_36 
REMARK   12  A    between atoms: C18_34  and  O22_40 
REMARK       I    between atoms: C19_36  and  N21_38 
REMARK   13  A    between atoms: N21_38  and  C39_75 
REMARK   14  A    between atoms: O22_40  and  C23_41 
REMARK       I    between atoms: C26_48  and  N28_50 
REMARK   15  A    between atoms: N28_50  and  C29_52 
REMARK   16  A    between atoms: C35_65  and  O36_67 
REMARK   17  A    between atoms: C45_88  and  O46_90 
ROOT
HETATM    1  C01 BE5 A 501      13.518  30.073   8.494  1.00 24.49     0.003 A 
HETATM    2  C02 BE5 A 501      13.508  31.547   8.549  1.00 24.30    -0.014 A 
HETATM    3  C03 BE5 A 501      14.678  32.315   8.933  1.00 26.88     0.035 A 
HETATM    4  C04 BE5 A 501      15.934  31.635   9.282  1.00 26.55     0.077 A 
HETATM    5  C05 BE5 A 501      15.985  30.156   9.236  1.00 25.99     0.133 A 
HETATM    6  C06 BE5 A 501      14.802  29.398   8.850  1.00 25.99     0.158 A 
HETATM    7  F50 BE5 A 501      17.226  29.451   9.577  1.00 29.63    -0.208 F 
HETATM    8  F51 BE5 A 501      14.815  27.879   8.787  1.00 27.35    -0.203 F 
ENDROOT
BRANCH   1   9
HETATM    9  C23 BE5 A 501      12.217  29.378   8.069  1.00 23.01     0.210 C 
BRANCH   9  10
HETATM   10  O22 BE5 A 501      11.815  29.883   6.756  1.00 22.02    -0.369 OA
BRANCH  10  11
HETATM   11  C18 BE5 A 501      10.490  30.547   6.578  1.00 18.95     0.244 C 
BRANCH  11  12
HETATM   12  C17 BE5 A 501       9.462  29.640   5.771  1.00 20.08     0.188 C 
BRANCH  12  13
HETATM   13  C16 BE5 A 501      10.201  28.502   5.241  1.00 20.53     0.188 C 
BRANCH  13  14
HETATM   14  C15 BE5 A 501      10.345  28.583   3.747  1.00 18.51     0.244 C 
BRANCH  14  15
HETATM   15  O14 BE5 A 501       9.988  29.962   3.183  1.00 19.29    -0.369 OA
BRANCH  15  16
HETATM   16  C13 BE5 A 501       8.942  30.099   2.167  1.00 21.08     0.206 C 
BRANCH  16  17
HETATM   17  C07 BE5 A 501       8.728  31.568   1.823  1.00 21.04    -0.015 A 
HETATM   18  C08 BE5 A 501       8.224  32.558   2.794  1.00 23.02     0.155 A 
HETATM   19  C09 BE5 A 501       8.051  33.984   2.381  1.00 21.73     0.132 A 
HETATM   20  F52 BE5 A 501       7.892  32.138   4.182  1.00 24.30    -0.203 F 
HETATM   21  C10 BE5 A 501       8.390  34.393   0.978  1.00 24.35     0.073 A 
HETATM   22  F49 BE5 A 501       7.556  34.962   3.341  1.00 27.68    -0.208 F 
HETATM   23  C11 BE5 A 501       8.897  33.356   0.029  1.00 23.62     0.011 A 
HETATM   24  C12 BE5 A 501       9.055  31.992   0.462  1.00 22.67     0.040 A 
ENDBRANCH  16  17
ENDBRANCH  15  16
ENDBRANCH  14  15
BRANCH  14  25
HETATM   25  C26 BE5 A 501      11.755  28.244   3.472  1.00 16.79     0.250 C 
HETATM   26  O27 BE5 A 501      12.209  28.363   2.305  1.00 20.11    -0.271 OA
HETATM   27  N28 BE5 A 501      12.538  27.815   4.495  1.00 15.99    -0.348 N 
HETATM   28  H28 BE5 A 501      12.137  27.733   5.430  1.00  0.00     0.163 HD
BRANCH  27  29
HETATM   29  C29 BE5 A 501      13.929  27.471   4.288  1.00 16.00     0.143 C 
HETATM   30  C30 BE5 A 501      14.803  28.576   4.788  1.00 16.23    -0.052 A 
HETATM   31  C31 BE5 A 501      16.063  28.019   5.287  1.00 17.03    -0.073 A 
HETATM   32  C32 BE5 A 501      14.558  30.038   4.835  1.00 16.86     0.036 A 
HETATM   33  C37 BE5 A 501      17.115  28.886   5.846  1.00 17.71     0.034 A 
HETATM   34  C38 BE5 A 501      16.038  26.549   5.119  1.00 16.65     0.068 C 
HETATM   35  C34 BE5 A 501      16.871  30.340   5.895  1.00 19.35     0.005 A 
HETATM   36  C33 BE5 A 501      15.616  30.934   5.401  1.00 18.24     0.005 A 
HETATM   37  C35 BE5 A 501      14.504  26.279   5.099  1.00 16.83     0.149 C 
BRANCH  37  38
HETATM   38  O36 BE5 A 501      13.872  26.308   6.402  1.00 14.03    -0.393 OA
HETATM   39  H36 BE5 A 501      14.516  26.004   7.030  1.00  0.00     0.210 HD
ENDBRANCH  37  38
ENDBRANCH  27  29
ENDBRANCH  14  25
ENDBRANCH  13  14
BRANCH  13  40
HETATM   40  O25 BE5 A 501       9.454  27.254   5.555  1.00 21.98    -0.390 OA
HETATM   41  H25 BE5 A 501       8.528  27.444   5.468  1.00  0.00     0.210 HD
ENDBRANCH  13  40
ENDBRANCH  12  13
BRANCH  12  42
HETATM   42  O24 BE5 A 501       8.401  29.159   6.640  1.00 17.11    -0.390 OA
HETATM   43  H24 BE5 A 501       8.346  28.213   6.571  1.00  0.00     0.210 HD
ENDBRANCH  12  42
ENDBRANCH  11  12
BRANCH  11  44
HETATM   44  C19 BE5 A 501      10.706  31.893   5.905  1.00 17.37     0.250 C 
HETATM   45  O20 BE5 A 501      10.186  32.939   6.368  1.00 18.21    -0.271 OA
HETATM   46  N21 BE5 A 501      11.464  31.921   4.770  1.00 14.53    -0.348 N 
HETATM   47  H21 BE5 A 501      11.859  31.044   4.431  1.00  0.00     0.163 HD
BRANCH  46  48
HETATM   48  C39 BE5 A 501      11.734  33.127   4.024  1.00 14.05     0.143 C 
HETATM   49  C40 BE5 A 501      13.069  33.749   4.413  1.00 15.79    -0.052 A 
HETATM   50  C41 BE5 A 501      13.740  34.252   3.226  1.00 16.99    -0.073 A 
HETATM   51  C42 BE5 A 501      13.701  33.880   5.735  1.00 16.33     0.036 A 
HETATM   52  C47 BE5 A 501      15.062  34.905   3.299  1.00 17.22     0.034 A 
HETATM   53  C48 BE5 A 501      12.868  33.982   2.036  1.00 15.28     0.068 C 
HETATM   54  C44 BE5 A 501      15.683  35.032   4.619  1.00 17.66     0.005 A 
HETATM   55  C43 BE5 A 501      15.039  34.536   5.840  1.00 18.87     0.005 A 
HETATM   56  C45 BE5 A 501      11.954  32.841   2.514  1.00 13.23     0.149 C 
BRANCH  56  57
HETATM   57  O46 BE5 A 501      12.555  31.525   2.399  1.00 13.13    -0.393 OA
HETATM   58  H46 BE5 A 501      13.170  31.425   3.116  1.00  0.00     0.210 HD
ENDBRANCH  56  57
ENDBRANCH  46  48
ENDBRANCH  11  44
ENDBRANCH  10  11
ENDBRANCH   9  10
ENDBRANCH   1   9
TORSDOF 17
ENDMDL
MODEL 19
REMARK VINA RESULT:       0.1      6.127     10.805
REMARK  17 active torsions:
REMARK  status: ('A' for Active; 'I' for Inactive)
REMARK    1  A    between atoms: C01_1  and  C23_41 
REMARK    2  A    between atoms: C07_12  and  C13_24 
REMARK    3  A    between atoms: C13_24  and  O14_27 
REMARK    4  A    between atoms: O14_27  and  C15_28 
REMARK    5  A    between atoms: C15_28  and  C16_30 
REMARK    6  A    between atoms: C15_28  and  C26_48 
REMARK    7  A    between atoms: C16_30  and  C17_32 
REMARK    8  A    between atoms: C16_30  and  O25_46 
REMARK    9  A    between atoms: C17_32  and  C18_34 
REMARK   10  A    between atoms: C17_32  and  O24_44 
REMARK   11  A    between atoms: C18_34  and  C19_36 
REMARK   12  A    between atoms: C18_34  and  O22_40 
REMARK       I    between atoms: C19_36  and  N21_38 
REMARK   13  A    between atoms: N21_38  and  C39_75 
REMARK   14  A    between atoms: O22_40  and  C23_41 
REMARK       I    between atoms: C26_48  and  N28_50 
REMARK   15  A    between atoms: N28_50  and  C29_52 
REMARK   16  A    between atoms: C35_65  and  O36_67 
REMARK   17  A    between atoms: C45_88  and  O46_90 
ROOT
HETATM    1  C01 BE5 A 501      12.045  31.135   0.383  1.00 24.49     0.003 A 
HETATM    2  C02 BE5 A 501      12.211  29.681   0.569  1.00 24.30    -0.014 A 
HETATM    3  C03 BE5 A 501      12.766  28.827  -0.464  1.00 26.88     0.035 A 
HETATM    4  C04 BE5 A 501      13.192  29.397  -1.752  1.00 26.55     0.077 A 
HETATM    5  C05 BE5 A 501      13.044  30.852  -1.976  1.00 25.99     0.133 A 
HETATM    6  C06 BE5 A 501      12.483  31.697  -0.930  1.00 25.99     0.158 A 
HETATM    7  F50 BE5 A 501      13.462  31.447  -3.250  1.00 29.63    -0.208 F 
HETATM    8  F51 BE5 A 501      12.319  33.196  -1.120  1.00 27.35    -0.203 F 
ENDROOT
BRANCH   1   9
HETATM    9  C23 BE5 A 501      11.449  31.929   1.555  1.00 23.01     0.210 C 
BRANCH   9  10
HETATM   10  O22 BE5 A 501      10.015  31.651   1.635  1.00 22.02    -0.369 OA
BRANCH  10  11
HETATM   11  C18 BE5 A 501       9.079  32.226   0.624  1.00 18.95     0.244 C 
BRANCH  11  12
HETATM   12  C17 BE5 A 501       8.097  33.308   1.255  1.00 20.08     0.188 C 
BRANCH  12  13
HETATM   13  C16 BE5 A 501       8.410  34.594   0.646  1.00 20.53     0.188 C 
BRANCH  13  14
HETATM   14  C15 BE5 A 501       7.480  34.908  -0.494  1.00 18.51     0.244 C 
BRANCH  14  15
HETATM   15  O14 BE5 A 501       6.412  35.944  -0.131  1.00 19.29    -0.369 OA
BRANCH  15  16
HETATM   16  C13 BE5 A 501       4.999  35.564  -0.075  1.00 21.08     0.206 C 
BRANCH  16  17
HETATM   17  C07 BE5 A 501       4.570  34.928  -1.392  1.00 21.04    -0.015 A 
HETATM   18  C08 BE5 A 501       4.672  35.618  -2.692  1.00 23.02     0.155 A 
HETATM   19  C09 BE5 A 501       4.239  34.921  -3.941  1.00 21.73     0.132 A 
HETATM   20  F52 BE5 A 501       5.209  37.005  -2.759  1.00 24.30    -0.203 F 
HETATM   21  C10 BE5 A 501       3.701  33.523  -3.858  1.00 24.35     0.073 A 
HETATM   22  F49 BE5 A 501       4.344  35.602  -5.225  1.00 27.68    -0.208 F 
HETATM   23  C11 BE5 A 501       3.615  32.864  -2.519  1.00 23.62     0.011 A 
HETATM   24  C12 BE5 A 501       4.044  33.564  -1.337  1.00 22.67     0.040 A 
ENDBRANCH  16  17
ENDBRANCH  15  16
ENDBRANCH  14  15
BRANCH  14  25
HETATM   25  C26 BE5 A 501       8.349  35.397  -1.582  1.00 16.79     0.250 C 
HETATM   26  O27 BE5 A 501       8.781  36.577  -1.551  1.00 20.11    -0.271 OA
HETATM   27  N28 BE5 A 501       8.668  34.553  -2.597  1.00 15.99    -0.348 N 
HETATM   28  H28 BE5 A 501       8.301  33.601  -2.588  1.00  0.00     0.163 HD
BRANCH  27  29
HETATM   29  C29 BE5 A 501       9.518  34.976  -3.690  1.00 16.00     0.143 C 
HETATM   30  C30 BE5 A 501       9.973  33.781  -4.467  1.00 16.23    -0.052 A 
HETATM   31  C31 BE5 A 501      10.145  34.148  -5.875  1.00 17.03    -0.073 A 
HETATM   32  C32 BE5 A 501      10.241  32.395  -4.014  1.00 16.86     0.036 A 
HETATM   33  C37 BE5 A 501      10.585  33.159  -6.874  1.00 17.71     0.034 A 
HETATM   34  C38 BE5 A 501       9.812  35.580  -6.043  1.00 16.65     0.068 C 
HETATM   35  C34 BE5 A 501      10.851  31.779  -6.425  1.00 19.35     0.005 A 
HETATM   36  C33 BE5 A 501      10.688  31.377  -5.017  1.00 18.24     0.005 A 
HETATM   37  C35 BE5 A 501       8.868  35.810  -4.826  1.00 16.83     0.149 C 
BRANCH  37  38
HETATM   38  O36 BE5 A 501       7.522  35.303  -5.006  1.00 14.03    -0.393 OA
HETATM   39  H36 BE5 A 501       7.427  34.556  -4.428  1.00  0.00     0.210 HD
ENDBRANCH  37  38
ENDBRANCH  27  29
ENDBRANCH  14  25
ENDBRANCH  13  14
BRANCH  13  40
HETATM   40  O25 BE5 A 501       9.792  34.545   0.099  1.00 21.98    -0.390 OA
HETATM   41  H25 BE5 A 501       9.906  33.700  -0.317  1.00  0.00     0.210 HD
ENDBRANCH  13  40
ENDBRANCH  12  13
BRANCH  12  42
HETATM   42  O24 BE5 A 501       6.711  32.974   0.979  1.00 17.11    -0.390 OA
HETATM   43  H24 BE5 A 501       6.147  33.629   1.375  1.00  0.00     0.210 HD
ENDBRANCH  12  42
ENDBRANCH  11  12
BRANCH  11  44
HETATM   44  C19 BE5 A 501       8.318  31.090  -0.038  1.00 17.37     0.250 C 
HETATM   45  O20 BE5 A 501       7.832  30.152   0.644  1.00 18.21    -0.271 OA
HETATM   46  N21 BE5 A 501       8.202  31.111  -1.398  1.00 14.53    -0.348 N 
HETATM   47  H21 BE5 A 501       8.619  31.890  -1.907  1.00  0.00     0.163 HD
BRANCH  46  48
HETATM   48  C39 BE5 A 501       7.519  30.087  -2.153  1.00 14.05     0.143 C 
HETATM   49  C40 BE5 A 501       7.266  30.516  -3.593  1.00 15.79    -0.052 A 
HETATM   50  C41 BE5 A 501       7.488  29.391  -4.486  1.00 16.99    -0.073 A 
HETATM   51  C42 BE5 A 501       6.863  31.824  -4.131  1.00 16.33     0.036 A 
HETATM   52  C47 BE5 A 501       7.322  29.516  -5.948  1.00 17.22     0.034 A 
HETATM   53  C48 BE5 A 501       7.885  28.202  -3.664  1.00 15.28     0.068 C 
HETATM   54  C44 BE5 A 501       6.921  30.821  -6.476  1.00 17.66     0.005 A 
HETATM   55  C43 BE5 A 501       6.687  31.980  -5.608  1.00 18.87     0.005 A 
HETATM   56  C45 BE5 A 501       8.403  28.827  -2.357  1.00 13.23     0.149 C 
BRANCH  56  57
HETATM   57  O46 BE5 A 501       9.784  29.265  -2.427  1.00 13.13    -0.393 OA
HETATM   58  H46 BE5 A 501      10.327  28.561  -2.093  1.00  0.00     0.210 HD
ENDBRANCH  56  57
ENDBRANCH  46  48
ENDBRANCH  11  44
ENDBRANCH  10  11
ENDBRANCH   9  10
ENDBRANCH   1   9
TORSDOF 17
ENDMDL
MODEL 20
REMARK VINA RESULT:       0.1      5.561     10.581
REMARK  17 active torsions:
REMARK  status: ('A' for Active; 'I' for Inactive)
REMARK    1  A    between atoms: C01_1  and  C23_41 
REMARK    2  A    between atoms: C07_12  and  C13_24 
REMARK    3  A    between atoms: C13_24  and  O14_27 
REMARK    4  A    between atoms: O14_27  and  C15_28 
REMARK    5  A    between atoms: C15_28  and  C16_30 
REMARK    6  A    between atoms: C15_28  and  C26_48 
REMARK    7  A    between atoms: C16_30  and  C17_32 
REMARK    8  A    between atoms: C16_30  and  O25_46 
REMARK    9  A    between atoms: C17_32  and  C18_34 
REMARK   10  A    between atoms: C17_32  and  O24_44 
REMARK   11  A    between atoms: C18_34  and  C19_36 
REMARK   12  A    between atoms: C18_34  and  O22_40 
REMARK       I    between atoms: C19_36  and  N21_38 
REMARK   13  A    between atoms: N21_38  and  C39_75 
REMARK   14  A    between atoms: O22_40  and  C23_41 
REMARK       I    between atoms: C26_48  and  N28_50 
REMARK   15  A    between atoms: N28_50  and  C29_52 
REMARK   16  A    between atoms: C35_65  and  O36_67 
REMARK   17  A    between atoms: C45_88  and  O46_90 
ROOT
HETATM    1  C01 BE5 A 501      12.045  31.135   0.383  1.00 24.49     0.003 A 
HETATM    2  C02 BE5 A 501      12.732  29.831   0.329  1.00 24.30    -0.014 A 
HETATM    3  C03 BE5 A 501      13.366  29.340  -0.880  1.00 26.88     0.035 A 
HETATM    4  C04 BE5 A 501      13.344  30.144  -2.112  1.00 26.55     0.077 A 
HETATM    5  C05 BE5 A 501      12.666  31.459  -2.097  1.00 25.99     0.133 A 
HETATM    6  C06 BE5 A 501      12.033  31.939  -0.876  1.00 25.99     0.158 A 
HETATM    7  F50 BE5 A 501      12.632  32.284  -3.310  1.00 29.63    -0.208 F 
HETATM    8  F51 BE5 A 501      11.331  33.286  -0.819  1.00 27.35    -0.203 F 
ENDROOT
BRANCH   1   9
HETATM    9  C23 BE5 A 501      11.418  31.542   1.724  1.00 23.01     0.210 C 
BRANCH   9  10
HETATM   10  O22 BE5 A 501      10.204  30.754   1.939  1.00 22.02    -0.369 OA
BRANCH  10  11
HETATM   11  C18 BE5 A 501       8.971  31.042   1.149  1.00 18.95     0.244 C 
BRANCH  11  12
HETATM   12  C17 BE5 A 501       7.797  31.626   2.050  1.00 20.08     0.188 C 
BRANCH  12  13
HETATM   13  C16 BE5 A 501       7.537  32.990   1.605  1.00 20.53     0.188 C 
BRANCH  13  14
HETATM   14  C15 BE5 A 501       6.378  33.048   0.649  1.00 18.51     0.244 C 
BRANCH  14  15
HETATM   15  O14 BE5 A 501       5.095  33.585   1.291  1.00 19.29    -0.369 OA
BRANCH  15  16
HETATM   16  C13 BE5 A 501       3.932  32.712   1.464  1.00 21.08     0.206 C 
BRANCH  16  17
HETATM   17  C07 BE5 A 501       3.534  32.091   0.130  1.00 21.04    -0.015 A 
HETATM   18  C08 BE5 A 501       3.170  32.890  -1.055  1.00 23.02     0.155 A 
HETATM   19  C09 BE5 A 501       2.801  32.204  -2.330  1.00 21.73     0.132 A 
HETATM   20  F52 BE5 A 501       3.174  34.377  -0.981  1.00 24.30    -0.203 F 
HETATM   21  C10 BE5 A 501       2.802  30.705  -2.390  1.00 24.35     0.073 A 
HETATM   22  F49 BE5 A 501       2.445  32.995  -3.502  1.00 27.68    -0.208 F 
HETATM   23  C11 BE5 A 501       3.177  29.937  -1.164  1.00 23.62     0.011 A 
HETATM   24  C12 BE5 A 501       3.530  30.631   0.047  1.00 22.67     0.040 A 
ENDBRANCH  16  17
ENDBRANCH  15  16
ENDBRANCH  14  15
BRANCH  14  25
HETATM   25  C26 BE5 A 501       6.827  33.921  -0.454  1.00 16.79     0.250 C 
HETATM   26  O27 BE5 A 501       6.823  35.169  -0.302  1.00 20.11    -0.271 OA
HETATM   27  N28 BE5 A 501       7.243  33.351  -1.614  1.00 15.99    -0.348 N 
HETATM   28  H28 BE5 A 501       7.235  32.335  -1.702  1.00  0.00     0.163 HD
BRANCH  27  29
HETATM   29  C29 BE5 A 501       7.697  34.156  -2.730  1.00 16.00     0.143 C 
HETATM   30  C30 BE5 A 501       8.399  33.289  -3.725  1.00 16.23    -0.052 A 
HETATM   31  C31 BE5 A 501       8.192  33.824  -5.073  1.00 17.03    -0.073 A 
HETATM   32  C32 BE5 A 501       9.202  32.059  -3.520  1.00 16.86     0.036 A 
HETATM   33  C37 BE5 A 501       8.772  33.163  -6.256  1.00 17.71     0.034 A 
HETATM   34  C38 BE5 A 501       7.361  35.045  -4.985  1.00 16.65     0.068 C 
HETATM   35  C34 BE5 A 501       9.571  31.938  -6.053  1.00 19.35     0.005 A 
HETATM   36  C33 BE5 A 501       9.797  31.374  -4.711  1.00 18.24     0.005 A 
HETATM   37  C35 BE5 A 501       6.616  34.799  -3.640  1.00 16.83     0.149 C 
BRANCH  37  38
HETATM   38  O36 BE5 A 501       5.519  33.856  -3.725  1.00 14.03    -0.393 OA
HETATM   39  H36 BE5 A 501       5.787  33.074  -3.257  1.00  0.00     0.210 HD
ENDBRANCH  37  38
ENDBRANCH  27  29
ENDBRANCH  14  25
ENDBRANCH  13  14
BRANCH  13  40
HETATM   40  O25 BE5 A 501       8.737  33.500   0.890  1.00 21.98    -0.390 OA
HETATM   41  H25 BE5 A 501       9.065  32.797   0.342  1.00  0.00     0.210 HD
ENDBRANCH  13  40
ENDBRANCH  12  13
BRANCH  12  42
HETATM   42  O24 BE5 A 501       6.586  30.837   1.901  1.00 17.11    -0.390 OA
HETATM   43  H24 BE5 A 501       5.906  31.201   2.456  1.00  0.00     0.210 HD
ENDBRANCH  12  42
ENDBRANCH  11  12
BRANCH  11  44
HETATM   44  C19 BE5 A 501       8.550  29.774   0.424  1.00 17.37     0.250 C 
HETATM   45  O20 BE5 A 501       8.541  28.664   1.014  1.00 18.21    -0.271 OA
HETATM   46  N21 BE5 A 501       8.206  29.879  -0.892  1.00 14.53    -0.348 N 
HETATM   47  H21 BE5 A 501       8.235  30.801  -1.328  1.00  0.00     0.163 HD
BRANCH  46  48
HETATM   48  C39 BE5 A 501       7.802  28.753  -1.701  1.00 14.05     0.143 C 
HETATM   49  C40 BE5 A 501       7.177  29.194  -3.019  1.00 15.79    -0.052 A 
HETATM   50  C41 BE5 A 501       7.621  28.318  -4.090  1.00 16.99    -0.073 A 
HETATM   51  C42 BE5 A 501       6.262  30.310  -3.303  1.00 16.33     0.036 A 
HETATM   52  C47 BE5 A 501       7.177  28.511  -5.485  1.00 17.22     0.034 A 
HETATM   53  C48 BE5 A 501       8.537  27.283  -3.509  1.00 15.28     0.068 C 
HETATM   54  C44 BE5 A 501       6.266  29.624  -5.759  1.00 17.66     0.005 A 
HETATM   55  C43 BE5 A 501       5.796  30.530  -4.706  1.00 18.87     0.005 A 
HETATM   56  C45 BE5 A 501       9.019  27.928  -2.197  1.00 13.23     0.149 C 
BRANCH  56  57
HETATM   57  O46 BE5 A 501      10.131  28.844  -2.372  1.00 13.13    -0.393 OA
HETATM   58  H46 BE5 A 501      10.932  28.358  -2.216  1.00  0.00     0.210 HD
ENDBRANCH  56  57
ENDBRANCH  46  48
ENDBRANCH  11  44
ENDBRANCH  10  11
ENDBRANCH   9  10
ENDBRANCH   1   9
TORSDOF 17
ENDMDL
