REMARK  9 active torsions:
REMARK  status: ('A' for Active; 'I' for Inactive)
REMARK    1  A    between atoms: PB_1  and  O3A_5 
REMARK    2  A    between atoms: O3A_5  and  PA_6 
REMARK    3  A    between atoms: PA_6  and  O5'_9 
REMARK    4  A    between atoms: O5'_9  and  C5'_10 
REMARK    5  A    between atoms: C5'_10  and  C4'_13 
REMARK    6  A    between atoms: C3'_16  and  O3'_18 
REMARK    7  A    between atoms: C2'_20  and  O2'_22 
REMARK    8  A    between atoms: C1'_24  and  N9_26 
REMARK    9  A    between atoms: C2_36  and  N2_37 
ROOT
HETATM    1  PB  GDP A 200      28.545 -12.542   7.167  1.00 45.17     0.431 P 
HETATM    2  O1B GDP A 200      30.034 -12.673   6.945  1.00 47.62    -0.616 OA
HETATM    3  O2B GDP A 200      28.058 -13.757   7.931  1.00 45.26    -0.616 OA
HETATM    4  O3B GDP A 200      27.855 -12.440   5.815  1.00 49.16    -0.616 OA
ENDROOT
BRANCH   1   5
HETATM    5  O3A GDP A 200      28.135 -11.219   7.973  1.00 41.56    -0.173 OA
BRANCH   5   6
HETATM    6  PA  GDP A 200      27.912 -11.104   9.573  1.00 43.96     0.418 P 
HETATM    7  O1A GDP A 200      29.051 -11.786  10.311  1.00 39.68    -0.624 OA
HETATM    8  O2A GDP A 200      26.547 -11.631  10.002  1.00 42.88    -0.624 OA
BRANCH   6   9
HETATM    9  O5' GDP A 200      27.932  -9.496   9.736  1.00 49.58    -0.287 OA
BRANCH   9  10
HETATM   10  C5' GDP A 200      29.146  -8.774   9.446  1.00 47.95     0.216 C 
BRANCH  10  11
HETATM   11  C4' GDP A 200      29.140  -7.382  10.081  1.00 46.52     0.180 C 
HETATM   12  O4' GDP A 200      27.985  -6.636   9.652  1.00 48.00    -0.353 OA
HETATM   13  C1' GDP A 200      27.213  -6.227  10.790  1.00 46.38     0.262 C 
HETATM   14  C2' GDP A 200      27.607  -7.186  11.906  1.00 49.56     0.198 C 
HETATM   15  C3' GDP A 200      29.061  -7.501  11.592  1.00 50.13     0.182 C 
BRANCH  13  16
HETATM   16  N9  GDP A 200      25.787  -6.357  10.447  1.00 52.18    -0.297 N 
HETATM   17  C8  GDP A 200      25.148  -7.484  10.048  1.00 48.02     0.188 A 
HETATM   18  N7  GDP A 200      23.832  -7.213   9.792  1.00 46.70    -0.345 N 
HETATM   19  C5  GDP A 200      23.631  -5.904  10.026  1.00 50.22     0.147 A 
HETATM   20  H7  GDP A 200      23.129  -7.883   9.480  1.00  0.00     0.167 HD
HETATM   21  C6  GDP A 200      22.488  -4.977   9.954  1.00 51.18     0.290 A 
HETATM   22  C4  GDP A 200      24.922  -5.340  10.452  1.00 52.08     0.159 A 
HETATM   23  O6  GDP A 200      21.354  -5.391   9.596  1.00 54.79    -0.265 OA
HETATM   24  N1  GDP A 200      22.709  -3.695  10.278  1.00 48.71    -0.154 N 
HETATM   25  C2  GDP A 200      23.916  -3.229  10.663  1.00 51.40     0.680 A 
HETATM   26  H1  GDP A 200      21.928  -3.041  10.231  1.00  0.00     0.187 HD
HETATM   27  N3  GDP A 200      25.008  -4.025  10.757  1.00 50.37    -0.174 N 
HETATM   28  H3  GDP A 200      25.899  -3.631  11.059  1.00  0.00     0.186 HD
BRANCH  25  29
HETATM   29  N2  GDP A 200      24.052  -1.916  10.975  1.00 48.52    -0.234 N 
HETATM   30  H22 GDP A 200      23.230  -1.317  10.904  1.00  0.00     0.174 HD
HETATM   31  H21 GDP A 200      24.964  -1.564  11.266  1.00  0.00     0.174 HD
ENDBRANCH  25  29
ENDBRANCH  13  16
BRANCH  14  32
HETATM   32  O2' GDP A 200      27.407  -6.601  13.191  1.00 44.71    -0.388 OA
HETATM   33  H2' GDP A 200      26.499  -6.404  13.387  1.00  0.00     0.210 HD
ENDBRANCH  14  32
BRANCH  15  34
HETATM   34  O3' GDP A 200      29.939  -6.533  12.187  1.00 49.51    -0.390 OA
HETATM   35  H3' GDP A 200      29.890  -6.607  13.133  1.00  0.00     0.210 HD
ENDBRANCH  15  34
ENDBRANCH  10  11
ENDBRANCH   9  10
ENDBRANCH   6   9
ENDBRANCH   5   6
ENDBRANCH   1   5
TORSDOF 9
