MODEL 1
REMARK VINA RESULT:      -6.1      0.000      0.000
REMARK  9 active torsions:
REMARK  status: ('A' for Active; 'I' for Inactive)
REMARK    1  A    between atoms: PB_1  and  O3A_5 
REMARK    2  A    between atoms: O3A_5  and  PA_6 
REMARK    3  A    between atoms: PA_6  and  O5'_9 
REMARK    4  A    between atoms: O5'_9  and  C5'_10 
REMARK    5  A    between atoms: C5'_10  and  C4'_13 
REMARK    6  A    between atoms: C3'_16  and  O3'_18 
REMARK    7  A    between atoms: C2'_20  and  O2'_22 
REMARK    8  A    between atoms: C1'_24  and  N9_26 
REMARK    9  A    between atoms: C2_36  and  N2_37 
ROOT
HETATM    1  PB  GDP A 200      28.224 -10.755   9.801  1.00 45.17     0.431 P 
HETATM    2  O1B GDP A 200      29.449 -11.345  10.460  1.00 47.62    -0.616 OA
HETATM    3  O2B GDP A 200      27.046 -11.675  10.052  1.00 45.26    -0.616 OA
HETATM    4  O3B GDP A 200      28.491 -10.611   8.310  1.00 49.16    -0.616 OA
ENDROOT
BRANCH   1   5
HETATM    5  O3A GDP A 200      27.862  -9.286  10.328  1.00 41.56    -0.173 OA
BRANCH   5   6
HETATM    6  PA  GDP A 200      28.889  -8.041  10.472  1.00 43.96     0.418 P 
HETATM    7  O1A GDP A 200      29.395  -7.618   9.104  1.00 39.68    -0.624 OA
HETATM    8  O2A GDP A 200      30.026  -8.344  11.441  1.00 42.88    -0.624 OA
BRANCH   6   9
HETATM    9  O5' GDP A 200      27.901  -6.950  11.141  1.00 49.58    -0.287 OA
BRANCH   9  10
HETATM   10  C5' GDP A 200      28.346  -6.215  12.299  1.00 47.95     0.216 C 
BRANCH  10  11
HETATM   11  C4' GDP A 200      28.550  -4.732  11.982  1.00 46.52     0.180 C 
HETATM   12  O4' GDP A 200      27.563  -4.277  11.037  1.00 48.00    -0.353 OA
HETATM   13  C1' GDP A 200      26.819  -3.182  11.590  1.00 46.38     0.262 C 
HETATM   14  C2' GDP A 200      26.988  -3.307  13.099  1.00 49.56     0.198 C 
HETATM   15  C3' GDP A 200      28.379  -3.903  13.242  1.00 50.13     0.182 C 
BRANCH  13  16
HETATM   16  N9  GDP A 200      25.410  -3.337  11.192  1.00 52.18    -0.297 N 
HETATM   17  C8  GDP A 200      24.462  -2.369  11.170  1.00 48.02     0.188 A 
HETATM   18  N7  GDP A 200      23.263  -2.893  10.770  1.00 46.70    -0.345 N 
HETATM   19  C5  GDP A 200      23.447  -4.205  10.539  1.00 50.22     0.147 A 
HETATM   20  H7  GDP A 200      22.387  -2.381  10.665  1.00  0.00     0.167 HD
HETATM   21  C6  GDP A 200      22.607  -5.332  10.097  1.00 51.18     0.290 A 
HETATM   22  C4  GDP A 200      24.861  -4.497  10.823  1.00 52.08     0.159 A 
HETATM   23  O6  GDP A 200      21.388  -5.154   9.838  1.00 54.79    -0.265 OA
HETATM   24  N1  GDP A 200      23.191  -6.534   9.991  1.00 48.71    -0.154 N 
HETATM   25  C2  GDP A 200      24.495  -6.748  10.265  1.00 51.40     0.680 A 
HETATM   26  H1  GDP A 200      22.621  -7.325   9.689  1.00  0.00     0.187 HD
HETATM   27  N3  GDP A 200      25.326  -5.758  10.669  1.00 50.37    -0.174 N 
HETATM   28  H3  GDP A 200      26.307  -5.965  10.859  1.00  0.00     0.186 HD
BRANCH  25  29
HETATM   29  N2  GDP A 200      25.005  -7.998  10.129  1.00 48.52    -0.234 N 
HETATM   30  H22 GDP A 200      25.261  -8.314   9.194  1.00  0.00     0.174 HD
HETATM   31  H21 GDP A 200      25.117  -8.584  10.956  1.00  0.00     0.174 HD
ENDBRANCH  25  29
ENDBRANCH  13  16
BRANCH  14  32
HETATM   32  O2' GDP A 200      26.830  -2.046  13.747  1.00 44.71    -0.388 OA
HETATM   33  H2' GDP A 200      25.975  -1.653  13.621  1.00  0.00     0.210 HD
ENDBRANCH  14  32
BRANCH  15  34
HETATM   34  O3' GDP A 200      29.381  -2.875  13.269  1.00 49.51    -0.390 OA
HETATM   35  H3' GDP A 200      29.990  -3.014  12.553  1.00  0.00     0.210 HD
ENDBRANCH  15  34
ENDBRANCH  10  11
ENDBRANCH   9  10
ENDBRANCH   6   9
ENDBRANCH   5   6
ENDBRANCH   1   5
TORSDOF 9
ENDMDL
MODEL 2
REMARK VINA RESULT:      -5.9      4.575      7.218
REMARK  9 active torsions:
REMARK  status: ('A' for Active; 'I' for Inactive)
REMARK    1  A    between atoms: PB_1  and  O3A_5 
REMARK    2  A    between atoms: O3A_5  and  PA_6 
REMARK    3  A    between atoms: PA_6  and  O5'_9 
REMARK    4  A    between atoms: O5'_9  and  C5'_10 
REMARK    5  A    between atoms: C5'_10  and  C4'_13 
REMARK    6  A    between atoms: C3'_16  and  O3'_18 
REMARK    7  A    between atoms: C2'_20  and  O2'_22 
REMARK    8  A    between atoms: C1'_24  and  N9_26 
REMARK    9  A    between atoms: C2_36  and  N2_37 
ROOT
HETATM    1  PB  GDP A 200      30.984   3.140   8.678  1.00 45.17     0.431 P 
HETATM    2  O1B GDP A 200      32.137   3.898   9.295  1.00 47.62    -0.616 OA
HETATM    3  O2B GDP A 200      31.427   2.588   7.337  1.00 45.26    -0.616 OA
HETATM    4  O3B GDP A 200      29.807   4.088   8.511  1.00 49.16    -0.616 OA
ENDROOT
BRANCH   1   5
HETATM    5  O3A GDP A 200      30.454   1.934   9.590  1.00 41.56    -0.173 OA
BRANCH   5   6
HETATM    6  PA  GDP A 200      28.924   1.415   9.695  1.00 43.96     0.418 P 
HETATM    7  O1A GDP A 200      28.393   1.065   8.316  1.00 39.68    -0.624 OA
HETATM    8  O2A GDP A 200      28.028   2.411  10.424  1.00 42.88    -0.624 OA
BRANCH   6   9
HETATM    9  O5' GDP A 200      29.140   0.116  10.633  1.00 49.58    -0.287 OA
BRANCH   9  10
HETATM   10  C5' GDP A 200      28.082  -0.294  11.523  1.00 47.95     0.216 C 
BRANCH  10  11
HETATM   11  C4' GDP A 200      28.263  -1.742  11.984  1.00 46.52     0.180 C 
HETATM   12  O4' GDP A 200      26.991  -2.326  12.324  1.00 48.00    -0.353 OA
HETATM   13  C1' GDP A 200      26.763  -3.502  11.534  1.00 46.38     0.262 C 
HETATM   14  C2' GDP A 200      27.662  -3.345  10.314  1.00 49.56     0.198 C 
HETATM   15  C3' GDP A 200      28.853  -2.575  10.861  1.00 50.13     0.182 C 
BRANCH  13  16
HETATM   16  N9  GDP A 200      25.341  -3.531  11.155  1.00 52.18    -0.297 N 
HETATM   17  C8  GDP A 200      24.471  -2.492  11.187  1.00 48.02     0.188 A 
HETATM   18  N7  GDP A 200      23.230  -2.904  10.788  1.00 46.70    -0.345 N 
HETATM   19  C5  GDP A 200      23.307  -4.216  10.503  1.00 50.22     0.147 A 
HETATM   20  H7  GDP A 200      22.395  -2.322  10.719  1.00  0.00     0.167 HD
HETATM   21  C6  GDP A 200      22.375  -5.256  10.033  1.00 51.18     0.290 A 
HETATM   22  C4  GDP A 200      24.698  -4.629  10.751  1.00 52.08     0.159 A 
HETATM   23  O6  GDP A 200      21.169  -4.974   9.803  1.00 54.79    -0.265 OA
HETATM   24  N1  GDP A 200      22.860  -6.495   9.870  1.00 48.71    -0.154 N 
HETATM   25  C2  GDP A 200      24.148  -6.821  10.112  1.00 51.40     0.680 A 
HETATM   26  H1  GDP A 200      22.227  -7.226   9.547  1.00  0.00     0.187 HD
HETATM   27  N3  GDP A 200      25.060  -5.915  10.540  1.00 50.37    -0.174 N 
HETATM   28  H3  GDP A 200      26.024  -6.205  10.704  1.00  0.00     0.186 HD
BRANCH  25  29
HETATM   29  N2  GDP A 200      24.557  -8.100   9.919  1.00 48.52    -0.234 N 
HETATM   30  H22 GDP A 200      25.031  -8.574  10.687  1.00  0.00     0.174 HD
HETATM   31  H21 GDP A 200      24.385  -8.548   9.019  1.00  0.00     0.174 HD
ENDBRANCH  25  29
ENDBRANCH  13  16
BRANCH  14  32
HETATM   32  O2' GDP A 200      28.001  -4.610   9.750  1.00 44.71    -0.388 OA
HETATM   33  H2' GDP A 200      28.671  -5.079  10.232  1.00  0.00     0.210 HD
ENDBRANCH  14  32
BRANCH  15  34
HETATM   34  O3' GDP A 200      29.839  -3.467  11.405  1.00 49.51    -0.390 OA
HETATM   35  H3' GDP A 200      30.669  -3.319  10.968  1.00  0.00     0.210 HD
ENDBRANCH  15  34
ENDBRANCH  10  11
ENDBRANCH   9  10
ENDBRANCH   6   9
ENDBRANCH   5   6
ENDBRANCH   1   5
TORSDOF 9
ENDMDL
MODEL 3
REMARK VINA RESULT:      -5.8      2.899      5.691
REMARK  9 active torsions:
REMARK  status: ('A' for Active; 'I' for Inactive)
REMARK    1  A    between atoms: PB_1  and  O3A_5 
REMARK    2  A    between atoms: O3A_5  and  PA_6 
REMARK    3  A    between atoms: PA_6  and  O5'_9 
REMARK    4  A    between atoms: O5'_9  and  C5'_10 
REMARK    5  A    between atoms: C5'_10  and  C4'_13 
REMARK    6  A    between atoms: C3'_16  and  O3'_18 
REMARK    7  A    between atoms: C2'_20  and  O2'_22 
REMARK    8  A    between atoms: C1'_24  and  N9_26 
REMARK    9  A    between atoms: C2_36  and  N2_37 
ROOT
HETATM    1  PB  GDP A 200      27.278  -4.574  16.908  1.00 45.17     0.431 P 
HETATM    2  O1B GDP A 200      28.109  -3.483  17.544  1.00 47.62    -0.616 OA
HETATM    3  O2B GDP A 200      25.901  -4.569  17.543  1.00 45.26    -0.616 OA
HETATM    4  O3B GDP A 200      27.971  -5.910  17.129  1.00 49.16    -0.616 OA
ENDROOT
BRANCH   1   5
HETATM    5  O3A GDP A 200      27.122  -4.413  15.322  1.00 41.56    -0.173 OA
BRANCH   5   6
HETATM    6  PA  GDP A 200      26.470  -3.149  14.547  1.00 43.96     0.418 P 
HETATM    7  O1A GDP A 200      27.293  -1.898  14.801  1.00 39.68    -0.624 OA
HETATM    8  O2A GDP A 200      24.999  -2.956  14.899  1.00 42.88    -0.624 OA
BRANCH   6   9
HETATM    9  O5' GDP A 200      26.583  -3.676  13.023  1.00 49.58    -0.287 OA
BRANCH   9  10
HETATM   10  C5' GDP A 200      27.886  -3.928  12.460  1.00 47.95     0.216 C 
BRANCH  10  11
HETATM   11  C4' GDP A 200      28.140  -5.426  12.274  1.00 46.52     0.180 C 
HETATM   12  O4' GDP A 200      26.896  -6.151  12.260  1.00 48.00    -0.353 OA
HETATM   13  C1' GDP A 200      26.769  -6.887  11.035  1.00 46.38     0.262 C 
HETATM   14  C2' GDP A 200      27.698  -6.187  10.051  1.00 49.56     0.198 C 
HETATM   15  C3' GDP A 200      28.820  -5.675  10.941  1.00 50.13     0.182 C 
BRANCH  13  16
HETATM   16  N9  GDP A 200      25.365  -6.810  10.598  1.00 52.18    -0.297 N 
HETATM   17  C8  GDP A 200      24.608  -7.827  10.120  1.00 48.02     0.188 A 
HETATM   18  N7  GDP A 200      23.361  -7.371   9.790  1.00 46.70    -0.345 N 
HETATM   19  C5  GDP A 200      23.324  -6.053  10.056  1.00 50.22     0.147 A 
HETATM   20  H7  GDP A 200      22.596  -7.929   9.411  1.00  0.00     0.167 HD
HETATM   21  C6  GDP A 200      22.326  -4.976   9.944  1.00 51.18     0.290 A 
HETATM   22  C4  GDP A 200      24.648  -5.684  10.583  1.00 52.08     0.159 A 
HETATM   23  O6  GDP A 200      21.173  -5.220   9.500  1.00 54.79    -0.265 OA
HETATM   24  N1  GDP A 200      22.696  -3.745  10.326  1.00 48.71    -0.154 N 
HETATM   25  C2  GDP A 200      23.927  -3.460  10.803  1.00 51.40     0.680 A 
HETATM   26  H1  GDP A 200      22.017  -2.989  10.252  1.00  0.00     0.187 HD
HETATM   27  N3  GDP A 200      24.891  -4.401  10.938  1.00 50.37    -0.174 N 
HETATM   28  H3  GDP A 200      25.805  -4.142  11.310  1.00  0.00     0.186 HD
BRANCH  25  29
HETATM   29  N2  GDP A 200      24.218  -2.187  11.168  1.00 48.52    -0.234 N 
HETATM   30  H22 GDP A 200      24.465  -1.521  10.437  1.00  0.00     0.174 HD
HETATM   31  H21 GDP A 200      24.187  -1.931  12.155  1.00  0.00     0.174 HD
ENDBRANCH  25  29
ENDBRANCH  13  16
BRANCH  14  32
HETATM   32  O2' GDP A 200      28.134  -7.076   9.024  1.00 44.71    -0.388 OA
HETATM   33  H2' GDP A 200      28.765  -6.693   8.427  1.00  0.00     0.210 HD
ENDBRANCH  14  32
BRANCH  15  34
HETATM   34  O3' GDP A 200      29.839  -6.673  11.111  1.00 49.51    -0.390 OA
HETATM   35  H3' GDP A 200      30.248  -6.848  10.272  1.00  0.00     0.210 HD
ENDBRANCH  15  34
ENDBRANCH  10  11
ENDBRANCH   9  10
ENDBRANCH   6   9
ENDBRANCH   5   6
ENDBRANCH   1   5
TORSDOF 9
ENDMDL
MODEL 4
REMARK VINA RESULT:      -5.7      1.651      2.532
REMARK  9 active torsions:
REMARK  status: ('A' for Active; 'I' for Inactive)
REMARK    1  A    between atoms: PB_1  and  O3A_5 
REMARK    2  A    between atoms: O3A_5  and  PA_6 
REMARK    3  A    between atoms: PA_6  and  O5'_9 
REMARK    4  A    between atoms: O5'_9  and  C5'_10 
REMARK    5  A    between atoms: C5'_10  and  C4'_13 
REMARK    6  A    between atoms: C3'_16  and  O3'_18 
REMARK    7  A    between atoms: C2'_20  and  O2'_22 
REMARK    8  A    between atoms: C1'_24  and  N9_26 
REMARK    9  A    between atoms: C2_36  and  N2_37 
ROOT
HETATM    1  PB  GDP A 200      30.457  -9.431  12.763  1.00 45.17     0.431 P 
HETATM    2  O1B GDP A 200      29.112  -9.403  13.451  1.00 47.62    -0.616 OA
HETATM    3  O2B GDP A 200      31.105 -10.777  13.016  1.00 45.26    -0.616 OA
HETATM    4  O3B GDP A 200      31.315  -8.304  13.317  1.00 49.16    -0.616 OA
ENDROOT
BRANCH   1   5
HETATM    5  O3A GDP A 200      30.369  -9.183  11.182  1.00 41.56    -0.173 OA
BRANCH   5   6
HETATM    6  PA  GDP A 200      29.287  -9.837  10.170  1.00 43.96     0.418 P 
HETATM    7  O1A GDP A 200      28.369 -10.784  10.924  1.00 39.68    -0.624 OA
HETATM    8  O2A GDP A 200      29.952 -10.507   8.973  1.00 42.88    -0.624 OA
BRANCH   6   9
HETATM    9  O5' GDP A 200      28.533  -8.496   9.673  1.00 49.58    -0.287 OA
BRANCH   9  10
HETATM   10  C5' GDP A 200      27.648  -7.808  10.580  1.00 47.95     0.216 C 
BRANCH  10  11
HETATM   11  C4' GDP A 200      28.134  -6.388  10.875  1.00 46.52     0.180 C 
HETATM   12  O4' GDP A 200      27.259  -5.418  10.267  1.00 48.00    -0.353 OA
HETATM   13  C1' GDP A 200      26.734  -4.534  11.266  1.00 46.38     0.262 C 
HETATM   14  C2' GDP A 200      26.863  -5.293  12.580  1.00 49.56     0.198 C 
HETATM   15  C3' GDP A 200      28.114  -6.133  12.371  1.00 50.13     0.182 C 
BRANCH  13  16
HETATM   16  N9  GDP A 200      25.325  -4.259  10.940  1.00 52.18    -0.297 N 
HETATM   17  C8  GDP A 200      24.680  -3.072  11.062  1.00 48.02     0.188 A 
HETATM   18  N7  GDP A 200      23.371  -3.207  10.689  1.00 46.70    -0.345 N 
HETATM   19  C5  GDP A 200      23.179  -4.489  10.329  1.00 50.22     0.147 A 
HETATM   20  H7  GDP A 200      22.668  -2.469  10.683  1.00  0.00     0.167 HD
HETATM   21  C6  GDP A 200      22.047  -5.294   9.838  1.00 51.18     0.290 A 
HETATM   22  C4  GDP A 200      24.466  -5.182  10.501  1.00 52.08     0.159 A 
HETATM   23  O6  GDP A 200      20.916  -4.766   9.669  1.00 54.79    -0.265 OA
HETATM   24  N1  GDP A 200      22.272  -6.592   9.589  1.00 48.71    -0.154 N 
HETATM   25  C2  GDP A 200      23.475  -7.179   9.764  1.00 51.40     0.680 A 
HETATM   26  H1  GDP A 200      21.498  -7.162   9.251  1.00  0.00     0.187 HD
HETATM   27  N3  GDP A 200      24.560  -6.499  10.206  1.00 50.37    -0.174 N 
HETATM   28  H3  GDP A 200      25.451  -6.981  10.317  1.00  0.00     0.186 HD
BRANCH  25  29
HETATM   29  N2  GDP A 200      23.617  -8.499   9.485  1.00 48.52    -0.234 N 
HETATM   30  H22 GDP A 200      23.510  -8.800   8.517  1.00  0.00     0.174 HD
HETATM   31  H21 GDP A 200      23.821  -9.150  10.244  1.00  0.00     0.174 HD
ENDBRANCH  25  29
ENDBRANCH  13  16
BRANCH  14  32
HETATM   32  O2' GDP A 200      26.944  -4.403  13.691  1.00 44.71    -0.388 OA
HETATM   33  H2' GDP A 200      27.113  -4.836  14.520  1.00  0.00     0.210 HD
ENDBRANCH  14  32
BRANCH  15  34
HETATM   34  O3' GDP A 200      29.294  -5.402  12.740  1.00 49.51    -0.390 OA
HETATM   35  H3' GDP A 200      29.829  -5.263  11.967  1.00  0.00     0.210 HD
ENDBRANCH  15  34
ENDBRANCH  10  11
ENDBRANCH   9  10
ENDBRANCH   6   9
ENDBRANCH   5   6
ENDBRANCH   1   5
TORSDOF 9
ENDMDL
MODEL 5
REMARK VINA RESULT:      -5.6      1.597      2.902
REMARK  9 active torsions:
REMARK  status: ('A' for Active; 'I' for Inactive)
REMARK    1  A    between atoms: PB_1  and  O3A_5 
REMARK    2  A    between atoms: O3A_5  and  PA_6 
REMARK    3  A    between atoms: PA_6  and  O5'_9 
REMARK    4  A    between atoms: O5'_9  and  C5'_10 
REMARK    5  A    between atoms: C5'_10  and  C4'_13 
REMARK    6  A    between atoms: C3'_16  and  O3'_18 
REMARK    7  A    between atoms: C2'_20  and  O2'_22 
REMARK    8  A    between atoms: C1'_24  and  N9_26 
REMARK    9  A    between atoms: C2_36  and  N2_37 
ROOT
HETATM    1  PB  GDP A 200      29.098 -10.990   9.278  1.00 45.17     0.431 P 
HETATM    2  O1B GDP A 200      29.438 -11.693   7.984  1.00 47.62    -0.616 OA
HETATM    3  O2B GDP A 200      27.758 -11.498   9.771  1.00 45.26    -0.616 OA
HETATM    4  O3B GDP A 200      29.048  -9.491   9.022  1.00 49.16    -0.616 OA
ENDROOT
BRANCH   1   5
HETATM    5  O3A GDP A 200      30.193 -11.206  10.427  1.00 41.56    -0.173 OA
BRANCH   5   6
HETATM    6  PA  GDP A 200      30.497 -10.201  11.660  1.00 43.96     0.418 P 
HETATM    7  O1A GDP A 200      31.297  -9.003  11.175  1.00 39.68    -0.624 OA
HETATM    8  O2A GDP A 200      31.172 -10.912  12.828  1.00 42.88    -0.624 OA
BRANCH   6   9
HETATM    9  O5' GDP A 200      28.984  -9.817  12.079  1.00 49.58    -0.287 OA
BRANCH   9  10
HETATM   10  C5' GDP A 200      28.762  -8.726  12.995  1.00 47.95     0.216 C 
BRANCH  10  11
HETATM   11  C4' GDP A 200      29.018  -7.371  12.332  1.00 46.52     0.180 C 
HETATM   12  O4' GDP A 200      28.135  -7.183  11.210  1.00 48.00    -0.353 OA
HETATM   13  C1' GDP A 200      27.358  -5.991  11.390  1.00 46.38     0.262 C 
HETATM   14  C2' GDP A 200      27.376  -5.725  12.890  1.00 49.56     0.198 C 
HETATM   15  C3' GDP A 200      28.737  -6.251  13.316  1.00 50.13     0.182 C 
BRANCH  13  16
HETATM   16  N9  GDP A 200      25.992  -6.257  10.907  1.00 52.18    -0.297 N 
HETATM   17  C8  GDP A 200      25.485  -7.456  10.529  1.00 48.02     0.188 A 
HETATM   18  N7  GDP A 200      24.190  -7.308  10.114  1.00 46.70    -0.345 N 
HETATM   19  C5  GDP A 200      23.870  -6.007  10.225  1.00 50.22     0.147 A 
HETATM   20  H7  GDP A 200      23.576  -8.052   9.780  1.00  0.00     0.167 HD
HETATM   21  C6  GDP A 200      22.679  -5.181   9.960  1.00 51.18     0.290 A 
HETATM   22  C4  GDP A 200      25.062  -5.314  10.742  1.00 52.08     0.159 A 
HETATM   23  O6  GDP A 200      21.625  -5.707   9.515  1.00 54.79    -0.265 OA
HETATM   24  N1  GDP A 200      22.770  -3.866  10.208  1.00 48.71    -0.154 N 
HETATM   25  C2  GDP A 200      23.890  -3.280  10.683  1.00 51.40     0.680 A 
HETATM   26  H1  GDP A 200      21.954  -3.281  10.028  1.00  0.00     0.187 HD
HETATM   27  N3  GDP A 200      25.018  -3.979  10.954  1.00 50.37    -0.174 N 
HETATM   28  H3  GDP A 200      25.839  -3.496  11.318  1.00  0.00     0.186 HD
BRANCH  25  29
HETATM   29  N2  GDP A 200      23.895  -1.943  10.907  1.00 48.52    -0.234 N 
HETATM   30  H22 GDP A 200      23.558  -1.604  11.808  1.00  0.00     0.174 HD
HETATM   31  H21 GDP A 200      24.229  -1.315  10.175  1.00  0.00     0.174 HD
ENDBRANCH  25  29
ENDBRANCH  13  16
BRANCH  14  32
HETATM   32  O2' GDP A 200      27.175  -4.342  13.176  1.00 44.71    -0.388 OA
HETATM   33  H2' GDP A 200      27.973  -3.827  13.166  1.00  0.00     0.210 HD
ENDBRANCH  14  32
BRANCH  15  34
HETATM   34  O3' GDP A 200      29.748  -5.239  13.179  1.00 49.51    -0.390 OA
HETATM   35  H3' GDP A 200      29.531  -4.504  13.739  1.00  0.00     0.210 HD
ENDBRANCH  15  34
ENDBRANCH  10  11
ENDBRANCH   9  10
ENDBRANCH   6   9
ENDBRANCH   5   6
ENDBRANCH   1   5
TORSDOF 9
ENDMDL
MODEL 6
REMARK VINA RESULT:      -5.6      2.857      5.721
REMARK  9 active torsions:
REMARK  status: ('A' for Active; 'I' for Inactive)
REMARK    1  A    between atoms: PB_1  and  O3A_5 
REMARK    2  A    between atoms: O3A_5  and  PA_6 
REMARK    3  A    between atoms: PA_6  and  O5'_9 
REMARK    4  A    between atoms: O5'_9  and  C5'_10 
REMARK    5  A    between atoms: C5'_10  and  C4'_13 
REMARK    6  A    between atoms: C3'_16  and  O3'_18 
REMARK    7  A    between atoms: C2'_20  and  O2'_22 
REMARK    8  A    between atoms: C1'_24  and  N9_26 
REMARK    9  A    between atoms: C2_36  and  N2_37 
ROOT
HETATM    1  PB  GDP A 200      28.430  -1.043  10.673  1.00 45.17     0.431 P 
HETATM    2  O1B GDP A 200      28.722  -0.864  12.145  1.00 47.62    -0.616 OA
HETATM    3  O2B GDP A 200      28.298   0.325  10.033  1.00 45.26    -0.616 OA
HETATM    4  O3B GDP A 200      27.142  -1.837  10.522  1.00 49.16    -0.616 OA
ENDROOT
BRANCH   1   5
HETATM    5  O3A GDP A 200      29.557  -1.877   9.897  1.00 41.56    -0.173 OA
BRANCH   5   6
HETATM    6  PA  GDP A 200      29.516  -2.321   8.340  1.00 43.96     0.418 P 
HETATM    7  O1A GDP A 200      30.917  -2.646   7.851  1.00 39.68    -0.624 OA
HETATM    8  O2A GDP A 200      28.824  -1.282   7.464  1.00 42.88    -0.624 OA
BRANCH   6   9
HETATM    9  O5' GDP A 200      28.572  -3.628   8.454  1.00 49.58    -0.287 OA
BRANCH   9  10
HETATM   10  C5' GDP A 200      29.175  -4.912   8.709  1.00 47.95     0.216 C 
BRANCH  10  11
HETATM   11  C4' GDP A 200      29.044  -5.316  10.179  1.00 46.52     0.180 C 
HETATM   12  O4' GDP A 200      27.695  -5.112  10.641  1.00 48.00    -0.353 OA
HETATM   13  C1' GDP A 200      27.153  -6.344  11.136  1.00 46.38     0.262 C 
HETATM   14  C2' GDP A 200      27.986  -7.439  10.482  1.00 49.56     0.198 C 
HETATM   15  C3' GDP A 200      29.355  -6.792  10.342  1.00 50.13     0.182 C 
BRANCH  13  16
HETATM   16  N9  GDP A 200      25.742  -6.422  10.723  1.00 52.18    -0.297 N 
HETATM   17  C8  GDP A 200      25.077  -7.530  10.311  1.00 48.02     0.188 A 
HETATM   18  N7  GDP A 200      23.788  -7.210   9.984  1.00 46.70    -0.345 N 
HETATM   19  C5  GDP A 200      23.630  -5.890  10.185  1.00 50.22     0.147 A 
HETATM   20  H7  GDP A 200      23.074  -7.857   9.648  1.00  0.00     0.167 HD
HETATM   21  C6  GDP A 200      22.532  -4.919  10.039  1.00 51.18     0.290 A 
HETATM   22  C4  GDP A 200      24.921  -5.371  10.666  1.00 52.08     0.159 A 
HETATM   23  O6  GDP A 200      21.401  -5.293   9.630  1.00 54.79    -0.265 OA
HETATM   24  N1  GDP A 200      22.790  -3.641  10.351  1.00 48.71    -0.154 N 
HETATM   25  C2  GDP A 200      23.994  -3.217  10.789  1.00 51.40     0.680 A 
HETATM   26  H1  GDP A 200      22.040  -2.957  10.253  1.00  0.00     0.187 HD
HETATM   27  N3  GDP A 200      25.046  -4.055  10.953  1.00 50.37    -0.174 N 
HETATM   28  H3  GDP A 200      25.936  -3.692  11.293  1.00  0.00     0.186 HD
BRANCH  25  29
HETATM   29  N2  GDP A 200      24.169  -1.905  11.085  1.00 48.52    -0.234 N 
HETATM   30  H22 GDP A 200      24.740  -1.666  11.896  1.00  0.00     0.174 HD
HETATM   31  H21 GDP A 200      23.726  -1.198  10.499  1.00  0.00     0.174 HD
ENDBRANCH  25  29
ENDBRANCH  13  16
BRANCH  14  32
HETATM   32  O2' GDP A 200      27.987  -8.631  11.265  1.00 44.71    -0.388 OA
HETATM   33  H2' GDP A 200      28.548  -8.588  12.030  1.00  0.00     0.210 HD
ENDBRANCH  14  32
BRANCH  15  34
HETATM   34  O3' GDP A 200      30.139  -6.980  11.530  1.00 49.51    -0.390 OA
HETATM   35  H3' GDP A 200      30.907  -6.422  11.489  1.00  0.00     0.210 HD
ENDBRANCH  15  34
ENDBRANCH  10  11
ENDBRANCH   9  10
ENDBRANCH   6   9
ENDBRANCH   5   6
ENDBRANCH   1   5
TORSDOF 9
ENDMDL
MODEL 7
REMARK VINA RESULT:      -5.6      2.983      5.892
REMARK  9 active torsions:
REMARK  status: ('A' for Active; 'I' for Inactive)
REMARK    1  A    between atoms: PB_1  and  O3A_5 
REMARK    2  A    between atoms: O3A_5  and  PA_6 
REMARK    3  A    between atoms: PA_6  and  O5'_9 
REMARK    4  A    between atoms: O5'_9  and  C5'_10 
REMARK    5  A    between atoms: C5'_10  and  C4'_13 
REMARK    6  A    between atoms: C3'_16  and  O3'_18 
REMARK    7  A    between atoms: C2'_20  and  O2'_22 
REMARK    8  A    between atoms: C1'_24  and  N9_26 
REMARK    9  A    between atoms: C2_36  and  N2_37 
ROOT
HETATM    1  PB  GDP A 200      29.244  -0.408   8.573  1.00 45.17     0.431 P 
HETATM    2  O1B GDP A 200      30.665  -0.225   9.056  1.00 47.62    -0.616 OA
HETATM    3  O2B GDP A 200      29.274  -0.781   7.105  1.00 45.26    -0.616 OA
HETATM    4  O3B GDP A 200      28.483   0.892   8.787  1.00 49.16    -0.616 OA
ENDROOT
BRANCH   1   5
HETATM    5  O3A GDP A 200      28.436  -1.531   9.382  1.00 41.56    -0.173 OA
BRANCH   5   6
HETATM    6  PA  GDP A 200      28.179  -1.560  10.981  1.00 43.96     0.418 P 
HETATM    7  O1A GDP A 200      27.012  -0.656  11.340  1.00 39.68    -0.624 OA
HETATM    8  O2A GDP A 200      29.438  -1.221  11.771  1.00 42.88    -0.624 OA
BRANCH   6   9
HETATM    9  O5' GDP A 200      27.841  -3.129  11.174  1.00 49.58    -0.287 OA
BRANCH   9  10
HETATM   10  C5' GDP A 200      28.047  -3.740  12.463  1.00 47.95     0.216 C 
BRANCH  10  11
HETATM   11  C4' GDP A 200      28.277  -5.248  12.342  1.00 46.52     0.180 C 
HETATM   12  O4' GDP A 200      27.020  -5.952  12.350  1.00 48.00    -0.353 OA
HETATM   13  C1' GDP A 200      26.888  -6.736  11.156  1.00 46.38     0.262 C 
HETATM   14  C2' GDP A 200      27.835  -6.095  10.150  1.00 49.56     0.198 C 
HETATM   15  C3' GDP A 200      28.960  -5.565  11.025  1.00 50.13     0.182 C 
BRANCH  13  16
HETATM   16  N9  GDP A 200      25.489  -6.654  10.706  1.00 52.18    -0.297 N 
HETATM   17  C8  GDP A 200      24.737  -7.665  10.204  1.00 48.02     0.188 A 
HETATM   18  N7  GDP A 200      23.494  -7.205   9.870  1.00 46.70    -0.345 N 
HETATM   19  C5  GDP A 200      23.452  -5.891  10.156  1.00 50.22     0.147 A 
HETATM   20  H7  GDP A 200      22.733  -7.758   9.474  1.00  0.00     0.167 HD
HETATM   21  C6  GDP A 200      22.453  -4.814  10.052  1.00 51.18     0.290 A 
HETATM   22  C4  GDP A 200      24.770  -5.529  10.702  1.00 52.08     0.159 A 
HETATM   23  O6  GDP A 200      21.305  -5.052   9.593  1.00 54.79    -0.265 OA
HETATM   24  N1  GDP A 200      22.818  -3.589  10.457  1.00 48.71    -0.154 N 
HETATM   25  C2  GDP A 200      24.044  -3.310  10.951  1.00 51.40     0.680 A 
HETATM   26  H1  GDP A 200      22.138  -2.832  10.388  1.00  0.00     0.187 HD
HETATM   27  N3  GDP A 200      25.008  -4.252  11.081  1.00 50.37    -0.174 N 
HETATM   28  H3  GDP A 200      25.918  -3.998  11.466  1.00  0.00     0.186 HD
BRANCH  25  29
HETATM   29  N2  GDP A 200      24.330  -2.043  11.340  1.00 48.52    -0.234 N 
HETATM   30  H22 GDP A 200      25.281  -1.702  11.205  1.00  0.00     0.174 HD
HETATM   31  H21 GDP A 200      23.595  -1.470  11.755  1.00  0.00     0.174 HD
ENDBRANCH  25  29
ENDBRANCH  13  16
BRANCH  14  32
HETATM   32  O2' GDP A 200      28.263  -7.033   9.165  1.00 44.71    -0.388 OA
HETATM   33  H2' GDP A 200      29.206  -7.103   9.084  1.00  0.00     0.210 HD
ENDBRANCH  14  32
BRANCH  15  34
HETATM   34  O3' GDP A 200      29.961  -6.571  11.245  1.00 49.51    -0.390 OA
HETATM   35  H3' GDP A 200      30.177  -6.983  10.416  1.00  0.00     0.210 HD
ENDBRANCH  15  34
ENDBRANCH  10  11
ENDBRANCH   9  10
ENDBRANCH   6   9
ENDBRANCH   5   6
ENDBRANCH   1   5
TORSDOF 9
ENDMDL
MODEL 8
REMARK VINA RESULT:      -5.6      4.532      7.035
REMARK  9 active torsions:
REMARK  status: ('A' for Active; 'I' for Inactive)
REMARK    1  A    between atoms: PB_1  and  O3A_5 
REMARK    2  A    between atoms: O3A_5  and  PA_6 
REMARK    3  A    between atoms: PA_6  and  O5'_9 
REMARK    4  A    between atoms: O5'_9  and  C5'_10 
REMARK    5  A    between atoms: C5'_10  and  C4'_13 
REMARK    6  A    between atoms: C3'_16  and  O3'_18 
REMARK    7  A    between atoms: C2'_20  and  O2'_22 
REMARK    8  A    between atoms: C1'_24  and  N9_26 
REMARK    9  A    between atoms: C2_36  and  N2_37 
ROOT
HETATM    1  PB  GDP A 200      30.234   3.024   8.860  1.00 45.17     0.431 P 
HETATM    2  O1B GDP A 200      31.312   2.861   9.906  1.00 47.62    -0.616 OA
HETATM    3  O2B GDP A 200      30.890   3.330   7.529  1.00 45.26    -0.616 OA
HETATM    4  O3B GDP A 200      29.309   4.156   9.282  1.00 49.16    -0.616 OA
ENDROOT
BRANCH   1   5
HETATM    5  O3A GDP A 200      29.303   1.730   8.699  1.00 41.56    -0.173 OA
BRANCH   5   6
HETATM    6  PA  GDP A 200      29.708   0.345   7.962  1.00 43.96     0.418 P 
HETATM    7  O1A GDP A 200      31.181   0.047   8.182  1.00 39.68    -0.624 OA
HETATM    8  O2A GDP A 200      29.333   0.350   6.484  1.00 42.88    -0.624 OA
BRANCH   6   9
HETATM    9  O5' GDP A 200      28.736  -0.678   8.750  1.00 49.58    -0.287 OA
BRANCH   9  10
HETATM   10  C5' GDP A 200      28.291  -0.342  10.080  1.00 47.95     0.216 C 
BRANCH  10  11
HETATM   11  C4' GDP A 200      28.427  -1.528  11.037  1.00 46.52     0.180 C 
HETATM   12  O4' GDP A 200      27.144  -1.883  11.587  1.00 48.00    -0.353 OA
HETATM   13  C1' GDP A 200      26.842  -3.253  11.287  1.00 46.38     0.262 C 
HETATM   14  C2' GDP A 200      27.705  -3.598  10.080  1.00 49.56     0.198 C 
HETATM   15  C3' GDP A 200      28.945  -2.742  10.288  1.00 50.13     0.182 C 
BRANCH  13  16
HETATM   16  N9  GDP A 200      25.408  -3.346  10.967  1.00 52.18    -0.297 N 
HETATM   17  C8  GDP A 200      24.509  -2.331  10.963  1.00 48.02     0.188 A 
HETATM   18  N7  GDP A 200      23.266  -2.804  10.643  1.00 46.70    -0.345 N 
HETATM   19  C5  GDP A 200      23.372  -4.130  10.446  1.00 50.22     0.147 A 
HETATM   20  H7  GDP A 200      22.413  -2.250  10.568  1.00  0.00     0.167 HD
HETATM   21  C6  GDP A 200      22.453  -5.225  10.086  1.00 51.18     0.290 A 
HETATM   22  C4  GDP A 200      24.782  -4.487  10.666  1.00 52.08     0.159 A 
HETATM   23  O6  GDP A 200      21.233  -4.992   9.885  1.00 54.79    -0.265 OA
HETATM   24  N1  GDP A 200      22.969  -6.458   9.988  1.00 48.71    -0.154 N 
HETATM   25  C2  GDP A 200      24.274  -6.732  10.201  1.00 51.40     0.680 A 
HETATM   26  H1  GDP A 200      22.345  -7.227   9.742  1.00  0.00     0.187 HD
HETATM   27  N3  GDP A 200      25.174  -5.774  10.529  1.00 50.37    -0.174 N 
HETATM   28  H3  GDP A 200      26.152  -6.026  10.674  1.00  0.00     0.186 HD
BRANCH  25  29
HETATM   29  N2  GDP A 200      24.713  -8.009  10.080  1.00 48.52    -0.234 N 
HETATM   30  H22 GDP A 200      24.842  -8.556  10.930  1.00  0.00     0.174 HD
HETATM   31  H21 GDP A 200      24.904  -8.385   9.151  1.00  0.00     0.174 HD
ENDBRANCH  25  29
ENDBRANCH  13  16
BRANCH  14  32
HETATM   32  O2' GDP A 200      27.973  -4.997  10.013  1.00 44.71    -0.388 OA
HETATM   33  H2' GDP A 200      27.587  -5.497  10.722  1.00  0.00     0.210 HD
ENDBRANCH  14  32
BRANCH  15  34
HETATM   34  O3' GDP A 200      29.910  -3.423  11.105  1.00 49.51    -0.390 OA
HETATM   35  H3' GDP A 200      30.532  -2.790  11.445  1.00  0.00     0.210 HD
ENDBRANCH  15  34
ENDBRANCH  10  11
ENDBRANCH   9  10
ENDBRANCH   6   9
ENDBRANCH   5   6
ENDBRANCH   1   5
TORSDOF 9
ENDMDL
MODEL 9
REMARK VINA RESULT:      -5.5      3.555      5.665
REMARK  9 active torsions:
REMARK  status: ('A' for Active; 'I' for Inactive)
REMARK    1  A    between atoms: PB_1  and  O3A_5 
REMARK    2  A    between atoms: O3A_5  and  PA_6 
REMARK    3  A    between atoms: PA_6  and  O5'_9 
REMARK    4  A    between atoms: O5'_9  and  C5'_10 
REMARK    5  A    between atoms: C5'_10  and  C4'_13 
REMARK    6  A    between atoms: C3'_16  and  O3'_18 
REMARK    7  A    between atoms: C2'_20  and  O2'_22 
REMARK    8  A    between atoms: C1'_24  and  N9_26 
REMARK    9  A    between atoms: C2_36  and  N2_37 
ROOT
HETATM    1  PB  GDP A 200      29.515  -2.583   5.196  1.00 45.17     0.431 P 
HETATM    2  O1B GDP A 200      28.585  -3.168   4.157  1.00 47.62    -0.616 OA
HETATM    3  O2B GDP A 200      29.870  -1.167   4.789  1.00 45.26    -0.616 OA
HETATM    4  O3B GDP A 200      30.762  -3.451   5.281  1.00 49.16    -0.616 OA
ENDROOT
BRANCH   1   5
HETATM    5  O3A GDP A 200      28.890  -2.563   6.671  1.00 41.56    -0.173 OA
BRANCH   5   6
HETATM    6  PA  GDP A 200      29.672  -2.179   8.036  1.00 43.96     0.418 P 
HETATM    7  O1A GDP A 200      28.723  -1.503   9.011  1.00 39.68    -0.624 OA
HETATM    8  O2A GDP A 200      30.919  -1.344   7.768  1.00 42.88    -0.624 OA
BRANCH   6   9
HETATM    9  O5' GDP A 200      30.119  -3.656   8.518  1.00 49.58    -0.287 OA
BRANCH   9  10
HETATM   10  C5' GDP A 200      29.113  -4.673   8.696  1.00 47.95     0.216 C 
BRANCH  10  11
HETATM   11  C4' GDP A 200      29.024  -5.130  10.154  1.00 46.52     0.180 C 
HETATM   12  O4' GDP A 200      27.679  -4.982  10.648  1.00 48.00    -0.353 OA
HETATM   13  C1' GDP A 200      27.184  -6.246  11.111  1.00 46.38     0.262 C 
HETATM   14  C2' GDP A 200      28.035  -7.293  10.405  1.00 49.56     0.198 C 
HETATM   15  C3' GDP A 200      29.382  -6.601  10.260  1.00 50.13     0.182 C 
BRANCH  13  16
HETATM   16  N9  GDP A 200      25.767  -6.353  10.723  1.00 52.18    -0.297 N 
HETATM   17  C8  GDP A 200      25.114  -7.477  10.340  1.00 48.02     0.188 A 
HETATM   18  N7  GDP A 200      23.815  -7.183  10.029  1.00 46.70    -0.345 N 
HETATM   19  C5  GDP A 200      23.639  -5.863  10.212  1.00 50.22     0.147 A 
HETATM   20  H7  GDP A 200      23.106  -7.846   9.715  1.00  0.00     0.167 HD
HETATM   21  C6  GDP A 200      22.523  -4.911  10.070  1.00 51.18     0.290 A 
HETATM   22  C4  GDP A 200      24.929  -5.316  10.664  1.00 52.08     0.159 A 
HETATM   23  O6  GDP A 200      21.392  -5.310   9.687  1.00 54.79    -0.265 OA
HETATM   24  N1  GDP A 200      22.765  -3.625  10.359  1.00 48.71    -0.154 N 
HETATM   25  C2  GDP A 200      23.970  -3.175  10.770  1.00 51.40     0.680 A 
HETATM   26  H1  GDP A 200      22.003  -2.954  10.263  1.00  0.00     0.187 HD
HETATM   27  N3  GDP A 200      25.038  -3.994  10.928  1.00 50.37    -0.174 N 
HETATM   28  H3  GDP A 200      25.927  -3.611  11.248  1.00  0.00     0.186 HD
BRANCH  25  29
HETATM   29  N2  GDP A 200      24.128  -1.856  11.043  1.00 48.52    -0.234 N 
HETATM   30  H22 GDP A 200      25.056  -1.528  11.308  1.00  0.00     0.174 HD
HETATM   31  H21 GDP A 200      23.323  -1.233  10.980  1.00  0.00     0.174 HD
ENDBRANCH  25  29
ENDBRANCH  13  16
BRANCH  14  32
HETATM   32  O2' GDP A 200      28.088  -8.509  11.146  1.00 44.71    -0.388 OA
HETATM   33  H2' GDP A 200      27.547  -9.203  10.787  1.00  0.00     0.210 HD
ENDBRANCH  14  32
BRANCH  15  34
HETATM   34  O3' GDP A 200      30.195  -6.804  11.426  1.00 49.51    -0.390 OA
HETATM   35  H3' GDP A 200      29.635  -7.018  12.163  1.00  0.00     0.210 HD
ENDBRANCH  15  34
ENDBRANCH  10  11
ENDBRANCH   9  10
ENDBRANCH   6   9
ENDBRANCH   5   6
ENDBRANCH   1   5
TORSDOF 9
ENDMDL
MODEL 10
REMARK VINA RESULT:      -5.5      1.321      2.230
REMARK  9 active torsions:
REMARK  status: ('A' for Active; 'I' for Inactive)
REMARK    1  A    between atoms: PB_1  and  O3A_5 
REMARK    2  A    between atoms: O3A_5  and  PA_6 
REMARK    3  A    between atoms: PA_6  and  O5'_9 
REMARK    4  A    between atoms: O5'_9  and  C5'_10 
REMARK    5  A    between atoms: C5'_10  and  C4'_13 
REMARK    6  A    between atoms: C3'_16  and  O3'_18 
REMARK    7  A    between atoms: C2'_20  and  O2'_22 
REMARK    8  A    between atoms: C1'_24  and  N9_26 
REMARK    9  A    between atoms: C2_36  and  N2_37 
ROOT
HETATM    1  PB  GDP A 200      29.290  -8.547  13.194  1.00 45.17     0.431 P 
HETATM    2  O1B GDP A 200      29.920  -9.879  12.858  1.00 47.62    -0.616 OA
HETATM    3  O2B GDP A 200      30.383  -7.500  13.283  1.00 45.26    -0.616 OA
HETATM    4  O3B GDP A 200      28.553  -8.673  14.518  1.00 49.16    -0.616 OA
ENDROOT
BRANCH   1   5
HETATM    5  O3A GDP A 200      28.197  -8.071  12.123  1.00 41.56    -0.173 OA
BRANCH   5   6
HETATM    6  PA  GDP A 200      28.409  -7.967  10.521  1.00 43.96     0.418 P 
HETATM    7  O1A GDP A 200      27.585  -9.029   9.813  1.00 39.68    -0.624 OA
HETATM    8  O2A GDP A 200      29.883  -8.023  10.132  1.00 42.88    -0.624 OA
BRANCH   6   9
HETATM    9  O5' GDP A 200      27.854  -6.470  10.269  1.00 49.58    -0.287 OA
BRANCH   9  10
HETATM   10  C5' GDP A 200      28.765  -5.448   9.816  1.00 47.95     0.216 C 
BRANCH  10  11
HETATM   11  C4' GDP A 200      28.696  -4.200  10.697  1.00 46.52     0.180 C 
HETATM   12  O4' GDP A 200      27.519  -3.429  10.390  1.00 48.00    -0.353 OA
HETATM   13  C1' GDP A 200      26.716  -3.266  11.569  1.00 46.38     0.262 C 
HETATM   14  C2' GDP A 200      27.132  -4.401  12.495  1.00 49.56     0.198 C 
HETATM   15  C3' GDP A 200      28.601  -4.600  12.158  1.00 50.13     0.182 C 
BRANCH  13  16
HETATM   16  N9  GDP A 200      25.301  -3.381  11.178  1.00 52.18    -0.297 N 
HETATM   17  C8  GDP A 200      24.374  -2.392  11.190  1.00 48.02     0.188 A 
HETATM   18  N7  GDP A 200      23.161  -2.880  10.787  1.00 46.70    -0.345 N 
HETATM   19  C5  GDP A 200      23.315  -4.189  10.520  1.00 50.22     0.147 A 
HETATM   20  H7  GDP A 200      22.295  -2.347  10.704  1.00  0.00     0.167 HD
HETATM   21  C6  GDP A 200      22.448  -5.287  10.057  1.00 51.18     0.290 A 
HETATM   22  C4  GDP A 200      24.725  -4.519  10.784  1.00 52.08     0.159 A 
HETATM   23  O6  GDP A 200      21.230  -5.076   9.814  1.00 54.79    -0.265 OA
HETATM   24  N1  GDP A 200      23.004  -6.498   9.914  1.00 48.71    -0.154 N 
HETATM   25  C2  GDP A 200      24.306  -6.746  10.171  1.00 51.40     0.680 A 
HETATM   26  H1  GDP A 200      22.416  -7.268   9.597  1.00  0.00     0.187 HD
HETATM   27  N3  GDP A 200      25.162  -5.785  10.594  1.00 50.37    -0.174 N 
HETATM   28  H3  GDP A 200      26.139  -6.017  10.769  1.00  0.00     0.186 HD
BRANCH  25  29
HETATM   29  N2  GDP A 200      24.789  -8.002   9.998  1.00 48.52    -0.234 N 
HETATM   30  H22 GDP A 200      24.338  -8.764  10.503  1.00  0.00     0.174 HD
HETATM   31  H21 GDP A 200      25.584  -8.150   9.377  1.00  0.00     0.174 HD
ENDBRANCH  25  29
ENDBRANCH  13  16
BRANCH  14  32
HETATM   32  O2' GDP A 200      26.892  -4.073  13.862  1.00 44.71    -0.388 OA
HETATM   33  H2' GDP A 200      25.974  -4.079  14.104  1.00  0.00     0.210 HD
ENDBRANCH  14  32
BRANCH  15  34
HETATM   34  O3' GDP A 200      29.433  -3.729  12.940  1.00 49.51    -0.390 OA
HETATM   35  H3' GDP A 200      29.268  -3.885  13.863  1.00  0.00     0.210 HD
ENDBRANCH  15  34
ENDBRANCH  10  11
ENDBRANCH   9  10
ENDBRANCH   6   9
ENDBRANCH   5   6
ENDBRANCH   1   5
TORSDOF 9
ENDMDL
MODEL 11
REMARK VINA RESULT:      -5.4      3.225      6.487
REMARK  9 active torsions:
REMARK  status: ('A' for Active; 'I' for Inactive)
REMARK    1  A    between atoms: PB_1  and  O3A_5 
REMARK    2  A    between atoms: O3A_5  and  PA_6 
REMARK    3  A    between atoms: PA_6  and  O5'_9 
REMARK    4  A    between atoms: O5'_9  and  C5'_10 
REMARK    5  A    between atoms: C5'_10  and  C4'_13 
REMARK    6  A    between atoms: C3'_16  and  O3'_18 
REMARK    7  A    between atoms: C2'_20  and  O2'_22 
REMARK    8  A    between atoms: C1'_24  and  N9_26 
REMARK    9  A    between atoms: C2_36  and  N2_37 
ROOT
HETATM    1  PB  GDP A 200      28.897   1.385  11.781  1.00 45.17     0.431 P 
HETATM    2  O1B GDP A 200      27.670   2.148  11.340  1.00 47.62    -0.616 OA
HETATM    3  O2B GDP A 200      29.023   1.493  13.287  1.00 45.26    -0.616 OA
HETATM    4  O3B GDP A 200      30.117   1.978  11.092  1.00 49.16    -0.616 OA
ENDROOT
BRANCH   1   5
HETATM    5  O3A GDP A 200      28.867  -0.164  11.369  1.00 41.56    -0.173 OA
BRANCH   5   6
HETATM    6  PA  GDP A 200      27.667  -1.210  11.667  1.00 43.96     0.418 P 
HETATM    7  O1A GDP A 200      27.131  -1.777  10.364  1.00 39.68    -0.624 OA
HETATM    8  O2A GDP A 200      26.568  -0.593  12.525  1.00 42.88    -0.624 OA
BRANCH   6   9
HETATM    9  O5' GDP A 200      28.471  -2.303  12.545  1.00 49.58    -0.287 OA
BRANCH   9  10
HETATM   10  C5' GDP A 200      27.734  -3.339  13.226  1.00 47.95     0.216 C 
BRANCH  10  11
HETATM   11  C4' GDP A 200      28.250  -4.732  12.860  1.00 46.52     0.180 C 
HETATM   12  O4' GDP A 200      27.153  -5.651  12.698  1.00 48.00    -0.353 OA
HETATM   13  C1' GDP A 200      27.182  -6.226  11.384  1.00 46.38     0.262 C 
HETATM   14  C2' GDP A 200      27.994  -5.252  10.540  1.00 49.56     0.198 C 
HETATM   15  C3' GDP A 200      28.991  -4.680  11.536  1.00 50.13     0.182 C 
BRANCH  13  16
HETATM   16  N9  GDP A 200      25.796  -6.332  10.899  1.00 52.18    -0.297 N 
HETATM   17  C8  GDP A 200      25.178  -7.451  10.448  1.00 48.02     0.188 A 
HETATM   18  N7  GDP A 200      23.900  -7.157  10.057  1.00 46.70    -0.345 N 
HETATM   19  C5  GDP A 200      23.703  -5.842  10.257  1.00 50.22     0.147 A 
HETATM   20  H7  GDP A 200      23.219  -7.817   9.682  1.00  0.00     0.167 HD
HETATM   21  C6  GDP A 200      22.593  -4.894  10.060  1.00 51.18     0.290 A 
HETATM   22  C4  GDP A 200      24.956  -5.298  10.806  1.00 52.08     0.159 A 
HETATM   23  O6  GDP A 200      21.493  -5.290   9.593  1.00 54.79    -0.265 OA
HETATM   24  N1  GDP A 200      22.806  -3.613  10.393  1.00 48.71    -0.154 N 
HETATM   25  C2  GDP A 200      23.977  -3.166  10.894  1.00 51.40     0.680 A 
HETATM   26  H1  GDP A 200      22.048  -2.944  10.261  1.00  0.00     0.187 HD
HETATM   27  N3  GDP A 200      25.038  -3.982  11.106  1.00 50.37    -0.174 N 
HETATM   28  H3  GDP A 200      25.901  -3.602  11.493  1.00  0.00     0.186 HD
BRANCH  25  29
HETATM   29  N2  GDP A 200      24.108  -1.852  11.205  1.00 48.52    -0.234 N 
HETATM   30  H22 GDP A 200      24.178  -1.181  10.441  1.00  0.00     0.174 HD
HETATM   31  H21 GDP A 200      24.137  -1.572  12.186  1.00  0.00     0.174 HD
ENDBRANCH  25  29
ENDBRANCH  13  16
BRANCH  14  32
HETATM   32  O2' GDP A 200      28.601  -5.906   9.427  1.00 44.71    -0.388 OA
HETATM   33  H2' GDP A 200      28.815  -5.324   8.708  1.00  0.00     0.210 HD
ENDBRANCH  14  32
BRANCH  15  34
HETATM   34  O3' GDP A 200      30.165  -5.502  11.621  1.00 49.51    -0.390 OA
HETATM   35  H3' GDP A 200      29.908  -6.417  11.609  1.00  0.00     0.210 HD
ENDBRANCH  15  34
ENDBRANCH  10  11
ENDBRANCH   9  10
ENDBRANCH   6   9
ENDBRANCH   5   6
ENDBRANCH   1   5
TORSDOF 9
ENDMDL
MODEL 12
REMARK VINA RESULT:      -5.4      1.166      1.693
REMARK  9 active torsions:
REMARK  status: ('A' for Active; 'I' for Inactive)
REMARK    1  A    between atoms: PB_1  and  O3A_5 
REMARK    2  A    between atoms: O3A_5  and  PA_6 
REMARK    3  A    between atoms: PA_6  and  O5'_9 
REMARK    4  A    between atoms: O5'_9  and  C5'_10 
REMARK    5  A    between atoms: C5'_10  and  C4'_13 
REMARK    6  A    between atoms: C3'_16  and  O3'_18 
REMARK    7  A    between atoms: C2'_20  and  O2'_22 
REMARK    8  A    between atoms: C1'_24  and  N9_26 
REMARK    9  A    between atoms: C2_36  and  N2_37 
ROOT
HETATM    1  PB  GDP A 200      29.100  -8.513   9.748  1.00 45.17     0.431 P 
HETATM    2  O1B GDP A 200      29.578  -7.120   9.411  1.00 47.62    -0.616 OA
HETATM    3  O2B GDP A 200      30.284  -9.458   9.708  1.00 45.26    -0.616 OA
HETATM    4  O3B GDP A 200      28.043  -8.927   8.734  1.00 49.16    -0.616 OA
ENDROOT
BRANCH   1   5
HETATM    5  O3A GDP A 200      28.397  -8.616  11.184  1.00 41.56    -0.173 OA
BRANCH   5   6
HETATM    6  PA  GDP A 200      28.877  -7.869  12.539  1.00 43.96     0.418 P 
HETATM    7  O1A GDP A 200      30.380  -7.646  12.510  1.00 39.68    -0.624 OA
HETATM    8  O2A GDP A 200      28.427  -8.610  13.794  1.00 42.88    -0.624 OA
BRANCH   6   9
HETATM    9  O5' GDP A 200      28.036  -6.496  12.407  1.00 49.58    -0.287 OA
BRANCH   9  10
HETATM   10  C5' GDP A 200      28.272  -5.432  13.351  1.00 47.95     0.216 C 
BRANCH  10  11
HETATM   11  C4' GDP A 200      28.449  -4.084  12.649  1.00 46.52     0.180 C 
HETATM   12  O4' GDP A 200      27.539  -3.970  11.537  1.00 48.00    -0.353 OA
HETATM   13  C1' GDP A 200      26.706  -2.813  11.701  1.00 46.38     0.262 C 
HETATM   14  C2' GDP A 200      26.736  -2.506  13.192  1.00 49.56     0.198 C 
HETATM   15  C3' GDP A 200      28.129  -2.953  13.608  1.00 50.13     0.182 C 
BRANCH  13  16
HETATM   16  N9  GDP A 200      25.348  -3.159  11.249  1.00 52.18    -0.297 N 
HETATM   17  C8  GDP A 200      24.290  -2.319  11.142  1.00 48.02     0.188 A 
HETATM   18  N7  GDP A 200      23.186  -3.004  10.715  1.00 46.70    -0.345 N 
HETATM   19  C5  GDP A 200      23.541  -4.291  10.552  1.00 50.22     0.147 A 
HETATM   20  H7  GDP A 200      22.259  -2.611  10.550  1.00  0.00     0.167 HD
HETATM   21  C6  GDP A 200      22.869  -5.532  10.127  1.00 51.18     0.290 A 
HETATM   22  C4  GDP A 200      24.965  -4.393  10.910  1.00 52.08     0.159 A 
HETATM   23  O6  GDP A 200      21.651  -5.518   9.808  1.00 54.79    -0.265 OA
HETATM   24  N1  GDP A 200      23.601  -6.655  10.101  1.00 48.71    -0.154 N 
HETATM   25  C2  GDP A 200      24.907  -6.692  10.440  1.00 51.40     0.680 A 
HETATM   26  H1  GDP A 200      23.149  -7.522   9.811  1.00  0.00     0.187 HD
HETATM   27  N3  GDP A 200      25.589  -5.590  10.834  1.00 50.37    -0.174 N 
HETATM   28  H3  GDP A 200      26.578  -5.664  11.075  1.00  0.00     0.186 HD
BRANCH  25  29
HETATM   29  N2  GDP A 200      25.574  -7.872  10.384  1.00 48.52    -0.234 N 
HETATM   30  H22 GDP A 200      26.022  -8.130   9.505  1.00  0.00     0.174 HD
HETATM   31  H21 GDP A 200      25.607  -8.467  11.212  1.00  0.00     0.174 HD
ENDBRANCH  25  29
ENDBRANCH  13  16
BRANCH  14  32
HETATM   32  O2' GDP A 200      26.471  -1.128  13.447  1.00 44.71    -0.388 OA
HETATM   33  H2' GDP A 200      26.576  -0.569  12.686  1.00  0.00     0.210 HD
ENDBRANCH  14  32
BRANCH  15  34
HETATM   34  O3' GDP A 200      29.085  -1.897  13.427  1.00 49.51    -0.390 OA
HETATM   35  H3' GDP A 200      29.516  -1.721  14.255  1.00  0.00     0.210 HD
ENDBRANCH  15  34
ENDBRANCH  10  11
ENDBRANCH   9  10
ENDBRANCH   6   9
ENDBRANCH   5   6
ENDBRANCH   1   5
TORSDOF 9
ENDMDL
MODEL 13
REMARK VINA RESULT:      -5.2      3.728      4.731
REMARK  9 active torsions:
REMARK  status: ('A' for Active; 'I' for Inactive)
REMARK    1  A    between atoms: PB_1  and  O3A_5 
REMARK    2  A    between atoms: O3A_5  and  PA_6 
REMARK    3  A    between atoms: PA_6  and  O5'_9 
REMARK    4  A    between atoms: O5'_9  and  C5'_10 
REMARK    5  A    between atoms: C5'_10  and  C4'_13 
REMARK    6  A    between atoms: C3'_16  and  O3'_18 
REMARK    7  A    between atoms: C2'_20  and  O2'_22 
REMARK    8  A    between atoms: C1'_24  and  N9_26 
REMARK    9  A    between atoms: C2_36  and  N2_37 
ROOT
HETATM    1  PB  GDP A 200      28.931  -6.613  16.473  1.00 45.17     0.431 P 
HETATM    2  O1B GDP A 200      29.564  -5.874  15.316  1.00 47.62    -0.616 OA
HETATM    3  O2B GDP A 200      29.850  -6.514  17.674  1.00 45.26    -0.616 OA
HETATM    4  O3B GDP A 200      28.721  -8.065  16.070  1.00 49.16    -0.616 OA
ENDROOT
BRANCH   1   5
HETATM    5  O3A GDP A 200      27.485  -6.051  16.873  1.00 41.56    -0.173 OA
BRANCH   5   6
HETATM    6  PA  GDP A 200      27.069  -4.492  17.013  1.00 43.96     0.418 P 
HETATM    7  O1A GDP A 200      28.256  -3.674  17.491  1.00 39.68    -0.624 OA
HETATM    8  O2A GDP A 200      25.842  -4.302  17.897  1.00 42.88    -0.624 OA
BRANCH   6   9
HETATM    9  O5' GDP A 200      26.667  -4.179  15.479  1.00 49.58    -0.287 OA
BRANCH   9  10
HETATM   10  C5' GDP A 200      27.134  -2.961  14.864  1.00 47.95     0.216 C 
BRANCH  10  11
HETATM   11  C4' GDP A 200      27.798  -3.230  13.512  1.00 46.52     0.180 C 
HETATM   12  O4' GDP A 200      26.901  -3.947  12.642  1.00 48.00    -0.353 OA
HETATM   13  C1' GDP A 200      26.692  -3.205  11.432  1.00 46.38     0.262 C 
HETATM   14  C2' GDP A 200      27.040  -1.764  11.781  1.00 49.56     0.198 C 
HETATM   15  C3' GDP A 200      28.133  -1.917  12.827  1.00 50.13     0.182 C 
BRANCH  13  16
HETATM   16  N9  GDP A 200      25.276  -3.339  11.052  1.00 52.18    -0.297 N 
HETATM   17  C8  GDP A 200      24.345  -2.354  11.026  1.00 48.02     0.188 A 
HETATM   18  N7  GDP A 200      23.133  -2.861  10.648  1.00 46.70    -0.345 N 
HETATM   19  C5  GDP A 200      23.290  -4.180  10.434  1.00 50.22     0.147 A 
HETATM   20  H7  GDP A 200      22.265  -2.335  10.546  1.00  0.00     0.167 HD
HETATM   21  C6  GDP A 200      22.424  -5.297  10.018  1.00 51.18     0.290 A 
HETATM   22  C4  GDP A 200      24.702  -4.494  10.706  1.00 52.08     0.159 A 
HETATM   23  O6  GDP A 200      21.206  -5.101   9.770  1.00 54.79    -0.265 OA
HETATM   24  N1  GDP A 200      22.984  -6.512   9.922  1.00 48.71    -0.154 N 
HETATM   25  C2  GDP A 200      24.288  -6.746  10.185  1.00 51.40     0.680 A 
HETATM   26  H1  GDP A 200      22.397  -7.296   9.638  1.00  0.00     0.187 HD
HETATM   27  N3  GDP A 200      25.142  -5.766  10.565  1.00 50.37    -0.174 N 
HETATM   28  H3  GDP A 200      26.121  -5.987  10.747  1.00  0.00     0.186 HD
BRANCH  25  29
HETATM   29  N2  GDP A 200      24.774  -8.006  10.061  1.00 48.52    -0.234 N 
HETATM   30  H22 GDP A 200      24.478  -8.559   9.257  1.00  0.00     0.174 HD
HETATM   31  H21 GDP A 200      25.413  -8.366  10.770  1.00  0.00     0.174 HD
ENDBRANCH  25  29
ENDBRANCH  13  16
BRANCH  14  32
HETATM   32  O2' GDP A 200      27.444  -1.030  10.627  1.00 44.71    -0.388 OA
HETATM   33  H2' GDP A 200      27.026  -1.316   9.824  1.00  0.00     0.210 HD
ENDBRANCH  14  32
BRANCH  15  34
HETATM   34  O3' GDP A 200      29.426  -2.024  12.211  1.00 49.51    -0.390 OA
HETATM   35  H3' GDP A 200      29.915  -2.722  12.631  1.00  0.00     0.210 HD
ENDBRANCH  15  34
ENDBRANCH  10  11
ENDBRANCH   9  10
ENDBRANCH   6   9
ENDBRANCH   5   6
ENDBRANCH   1   5
TORSDOF 9
ENDMDL
MODEL 14
REMARK VINA RESULT:      -5.1      7.275     10.105
REMARK  9 active torsions:
REMARK  status: ('A' for Active; 'I' for Inactive)
REMARK    1  A    between atoms: PB_1  and  O3A_5 
REMARK    2  A    between atoms: O3A_5  and  PA_6 
REMARK    3  A    between atoms: PA_6  and  O5'_9 
REMARK    4  A    between atoms: O5'_9  and  C5'_10 
REMARK    5  A    between atoms: C5'_10  and  C4'_13 
REMARK    6  A    between atoms: C3'_16  and  O3'_18 
REMARK    7  A    between atoms: C2'_20  and  O2'_22 
REMARK    8  A    between atoms: C1'_24  and  N9_26 
REMARK    9  A    between atoms: C2_36  and  N2_37 
ROOT
HETATM    1  PB  GDP A 200      31.031   3.127  11.561  1.00 45.17     0.431 P 
HETATM    2  O1B GDP A 200      31.058   4.638  11.521  1.00 47.62    -0.616 OA
HETATM    3  O2B GDP A 200      29.712   2.680  12.158  1.00 45.26    -0.616 OA
HETATM    4  O3B GDP A 200      32.200   2.638  12.402  1.00 49.16    -0.616 OA
ENDROOT
BRANCH   1   5
HETATM    5  O3A GDP A 200      31.209   2.449  10.120  1.00 41.56    -0.173 OA
BRANCH   5   6
HETATM    6  PA  GDP A 200      30.904   3.146   8.690  1.00 43.96     0.418 P 
HETATM    7  O1A GDP A 200      32.063   4.041   8.286  1.00 39.68    -0.624 OA
HETATM    8  O2A GDP A 200      29.572   3.886   8.684  1.00 42.88    -0.624 OA
BRANCH   6   9
HETATM    9  O5' GDP A 200      30.778   1.826   7.765  1.00 49.58    -0.287 OA
BRANCH   9  10
HETATM   10  C5' GDP A 200      30.548   1.977   6.350  1.00 47.95     0.216 C 
BRANCH  10  11
HETATM   11  C4' GDP A 200      31.360   0.968   5.535  1.00 46.52     0.180 C 
HETATM   12  O4' GDP A 200      31.444  -0.291   6.229  1.00 48.00    -0.353 OA
HETATM   13  C1' GDP A 200      30.913  -1.341   5.409  1.00 46.38     0.262 C 
HETATM   14  C2' GDP A 200      30.000  -0.644   4.409  1.00 49.56     0.198 C 
HETATM   15  C3' GDP A 200      30.675   0.703   4.207  1.00 50.13     0.182 C 
BRANCH  13  16
HETATM   16  N9  GDP A 200      30.158  -2.262   6.276  1.00 52.18    -0.297 N 
HETATM   17  C8  GDP A 200      29.890  -3.568   6.034  1.00 48.02     0.188 A 
HETATM   18  N7  GDP A 200      29.142  -4.092   7.052  1.00 46.70    -0.345 N 
HETATM   19  C5  GDP A 200      28.928  -3.112   7.948  1.00 50.22     0.147 A 
HETATM   20  H7  GDP A 200      28.806  -5.053   7.120  1.00  0.00     0.167 HD
HETATM   21  C6  GDP A 200      28.225  -2.988   9.237  1.00 51.18     0.290 A 
HETATM   22  C4  GDP A 200      29.594  -1.905   7.432  1.00 52.08     0.159 A 
HETATM   23  O6  GDP A 200      27.633  -3.981   9.737  1.00 54.79    -0.265 OA
HETATM   24  N1  GDP A 200      28.242  -1.791   9.839  1.00 48.71    -0.154 N 
HETATM   25  C2  GDP A 200      28.869  -0.713   9.321  1.00 51.40     0.680 A 
HETATM   26  H1  GDP A 200      27.758  -1.689  10.731  1.00  0.00     0.187 HD
HETATM   27  N3  GDP A 200      29.539  -0.756   8.145  1.00 50.37    -0.174 N 
HETATM   28  H3  GDP A 200      30.004   0.081   7.795  1.00  0.00     0.186 HD
BRANCH  25  29
HETATM   29  N2  GDP A 200      28.838   0.462   9.998  1.00 48.52    -0.234 N 
HETATM   30  H22 GDP A 200      27.959   0.746  10.429  1.00  0.00     0.174 HD
HETATM   31  H21 GDP A 200      29.685   1.027  10.055  1.00  0.00     0.174 HD
ENDBRANCH  25  29
ENDBRANCH  13  16
BRANCH  14  32
HETATM   32  O2' GDP A 200      29.861  -1.406   3.211  1.00 44.71    -0.388 OA
HETATM   33  H2' GDP A 200      30.007  -0.906   2.418  1.00  0.00     0.210 HD
ENDBRANCH  14  32
BRANCH  15  34
HETATM   34  O3' GDP A 200      31.668   0.633   3.171  1.00 49.51    -0.390 OA
HETATM   35  H3' GDP A 200      31.372   1.135   2.421  1.00  0.00     0.210 HD
ENDBRANCH  15  34
ENDBRANCH  10  11
ENDBRANCH   9  10
ENDBRANCH   6   9
ENDBRANCH   5   6
ENDBRANCH   1   5
TORSDOF 9
ENDMDL
MODEL 15
REMARK VINA RESULT:      -5.0      6.136      7.948
REMARK  9 active torsions:
REMARK  status: ('A' for Active; 'I' for Inactive)
REMARK    1  A    between atoms: PB_1  and  O3A_5 
REMARK    2  A    between atoms: O3A_5  and  PA_6 
REMARK    3  A    between atoms: PA_6  and  O5'_9 
REMARK    4  A    between atoms: O5'_9  and  C5'_10 
REMARK    5  A    between atoms: C5'_10  and  C4'_13 
REMARK    6  A    between atoms: C3'_16  and  O3'_18 
REMARK    7  A    between atoms: C2'_20  and  O2'_22 
REMARK    8  A    between atoms: C1'_24  and  N9_26 
REMARK    9  A    between atoms: C2_36  and  N2_37 
ROOT
HETATM    1  PB  GDP A 200      29.449  -8.387   9.566  1.00 45.17     0.431 P 
HETATM    2  O1B GDP A 200      28.114  -8.577   8.884  1.00 47.62    -0.616 OA
HETATM    3  O2B GDP A 200      30.243  -9.673   9.449  1.00 45.26    -0.616 OA
HETATM    4  O3B GDP A 200      29.208  -8.031  11.025  1.00 49.16    -0.616 OA
ENDROOT
BRANCH   1   5
HETATM    5  O3A GDP A 200      30.311  -7.183   8.954  1.00 41.56    -0.173 OA
BRANCH   5   6
HETATM    6  PA  GDP A 200      30.012  -5.602   9.138  1.00 43.96     0.418 P 
HETATM    7  O1A GDP A 200      30.845  -5.040  10.277  1.00 39.68    -0.624 OA
HETATM    8  O2A GDP A 200      28.524  -5.316   9.313  1.00 42.88    -0.624 OA
BRANCH   6   9
HETATM    9  O5' GDP A 200      30.486  -5.064   7.689  1.00 49.58    -0.287 OA
BRANCH   9  10
HETATM   10  C5' GDP A 200      30.564  -3.644   7.456  1.00 47.95     0.216 C 
BRANCH  10  11
HETATM   11  C4' GDP A 200      29.368  -3.137   6.648  1.00 46.52     0.180 C 
HETATM   12  O4' GDP A 200      29.154  -1.733   6.888  1.00 48.00    -0.353 OA
HETATM   13  C1' GDP A 200      29.213  -1.008   5.652  1.00 46.38     0.262 C 
HETATM   14  C2' GDP A 200      30.002  -1.900   4.702  1.00 49.56     0.198 C 
HETATM   15  C3' GDP A 200      29.637  -3.302   5.163  1.00 50.13     0.182 C 
BRANCH  13  16
HETATM   16  N9  GDP A 200      29.910   0.265   5.900  1.00 52.18    -0.297 N 
HETATM   17  C8  GDP A 200      30.817   0.864   5.090  1.00 48.02     0.188 A 
HETATM   18  N7  GDP A 200      31.270   2.020   5.665  1.00 46.70    -0.345 N 
HETATM   19  C5  GDP A 200      30.651   2.157   6.850  1.00 50.22     0.147 A 
HETATM   20  H7  GDP A 200      31.954   2.663   5.266  1.00  0.00     0.167 HD
HETATM   21  C6  GDP A 200      30.667   3.139   7.948  1.00 51.18     0.290 A 
HETATM   22  C4  GDP A 200      29.759   0.996   7.007  1.00 52.08     0.159 A 
HETATM   23  O6  GDP A 200      31.407   4.156   7.882  1.00 54.79    -0.265 OA
HETATM   24  N1  GDP A 200      29.875   2.902   9.003  1.00 48.71    -0.154 N 
HETATM   25  C2  GDP A 200      29.074   1.819   9.096  1.00 51.40     0.680 A 
HETATM   26  H1  GDP A 200      29.877   3.572   9.772  1.00  0.00     0.187 HD
HETATM   27  N3  GDP A 200      29.005   0.879   8.123  1.00 50.37    -0.174 N 
HETATM   28  H3  GDP A 200      28.380   0.080   8.233  1.00  0.00     0.186 HD
BRANCH  25  29
HETATM   29  N2  GDP A 200      28.302   1.657  10.200  1.00 48.52    -0.234 N 
HETATM   30  H22 GDP A 200      28.542   0.908  10.849  1.00  0.00     0.174 HD
HETATM   31  H21 GDP A 200      27.508   2.279  10.349  1.00  0.00     0.174 HD
ENDBRANCH  25  29
ENDBRANCH  13  16
BRANCH  14  32
HETATM   32  O2' GDP A 200      29.670  -1.635   3.341  1.00 44.71    -0.388 OA
HETATM   33  H2' GDP A 200      30.414  -1.391   2.804  1.00  0.00     0.210 HD
ENDBRANCH  14  32
BRANCH  15  34
HETATM   34  O3' GDP A 200      28.441  -3.763   4.517  1.00 49.51    -0.390 OA
HETATM   35  H3' GDP A 200      28.240  -4.641   4.821  1.00  0.00     0.210 HD
ENDBRANCH  15  34
ENDBRANCH  10  11
ENDBRANCH   9  10
ENDBRANCH   6   9
ENDBRANCH   5   6
ENDBRANCH   1   5
TORSDOF 9
ENDMDL
MODEL 16
REMARK VINA RESULT:      -5.0      5.819      7.600
REMARK  9 active torsions:
REMARK  status: ('A' for Active; 'I' for Inactive)
REMARK    1  A    between atoms: PB_1  and  O3A_5 
REMARK    2  A    between atoms: O3A_5  and  PA_6 
REMARK    3  A    between atoms: PA_6  and  O5'_9 
REMARK    4  A    between atoms: O5'_9  and  C5'_10 
REMARK    5  A    between atoms: C5'_10  and  C4'_13 
REMARK    6  A    between atoms: C3'_16  and  O3'_18 
REMARK    7  A    between atoms: C2'_20  and  O2'_22 
REMARK    8  A    between atoms: C1'_24  and  N9_26 
REMARK    9  A    between atoms: C2_36  and  N2_37 
ROOT
HETATM    1  PB  GDP A 200      24.565  -3.808  10.672  1.00 45.17     0.431 P 
HETATM    2  O1B GDP A 200      24.970  -5.178  10.180  1.00 47.62    -0.616 OA
HETATM    3  O2B GDP A 200      23.666  -3.971  11.882  1.00 45.26    -0.616 OA
HETATM    4  O3B GDP A 200      23.838  -3.080   9.551  1.00 49.16    -0.616 OA
ENDROOT
BRANCH   1   5
HETATM    5  O3A GDP A 200      25.810  -2.879  11.067  1.00 41.56    -0.173 OA
BRANCH   5   6
HETATM    6  PA  GDP A 200      27.350  -3.101  10.616  1.00 43.96     0.418 P 
HETATM    7  O1A GDP A 200      27.427  -3.352   9.120  1.00 39.68    -0.624 OA
HETATM    8  O2A GDP A 200      28.032  -4.200  11.423  1.00 42.88    -0.624 OA
BRANCH   6   9
HETATM    9  O5' GDP A 200      27.967  -1.670  11.045  1.00 49.58    -0.287 OA
BRANCH   9  10
HETATM   10  C5' GDP A 200      29.372  -1.419  10.838  1.00 47.95     0.216 C 
BRANCH  10  11
HETATM   11  C4' GDP A 200      29.746   0.022  11.191  1.00 46.52     0.180 C 
HETATM   12  O4' GDP A 200      30.599   0.586  10.176  1.00 48.00    -0.353 OA
HETATM   13  C1' GDP A 200      30.001   1.773   9.635  1.00 46.38     0.262 C 
HETATM   14  C2' GDP A 200      28.514   1.647   9.941  1.00 49.56     0.198 C 
HETATM   15  C3' GDP A 200      28.497   0.882  11.254  1.00 50.13     0.182 C 
BRANCH  13  16
HETATM   16  N9  GDP A 200      30.253   1.792   8.184  1.00 52.18    -0.297 N 
HETATM   17  C8  GDP A 200      30.800   2.805   7.469  1.00 48.02     0.188 A 
HETATM   18  N7  GDP A 200      30.851   2.471   6.143  1.00 46.70    -0.345 N 
HETATM   19  C5  GDP A 200      30.330   1.238   6.012  1.00 50.22     0.147 A 
HETATM   20  H7  GDP A 200      31.219   3.052   5.390  1.00  0.00     0.167 HD
HETATM   21  C6  GDP A 200      30.086   0.303   4.900  1.00 51.18     0.290 A 
HETATM   22  C4  GDP A 200      29.930   0.794   7.357  1.00 52.08     0.159 A 
HETATM   23  O6  GDP A 200      30.402   0.618   3.722  1.00 54.79    -0.265 OA
HETATM   24  N1  GDP A 200      29.520  -0.876   5.195  1.00 48.71    -0.154 N 
HETATM   25  C2  GDP A 200      29.172  -1.234   6.449  1.00 51.40     0.680 A 
HETATM   26  H1  GDP A 200      29.343  -1.533   4.435  1.00  0.00     0.187 HD
HETATM   27  N3  GDP A 200      29.372  -0.427   7.519  1.00 50.37    -0.174 N 
HETATM   28  H3  GDP A 200      29.099  -0.741   8.450  1.00  0.00     0.186 HD
BRANCH  25  29
HETATM   29  N2  GDP A 200      28.604  -2.447   6.660  1.00 48.52    -0.234 N 
HETATM   30  H22 GDP A 200      28.073  -2.869   5.899  1.00  0.00     0.174 HD
HETATM   31  H21 GDP A 200      28.719  -2.901   7.566  1.00  0.00     0.174 HD
ENDBRANCH  25  29
ENDBRANCH  13  16
BRANCH  14  32
HETATM   32  O2' GDP A 200      27.886   2.926  10.008  1.00 44.71    -0.388 OA
HETATM   33  H2' GDP A 200      26.947   2.901   9.872  1.00  0.00     0.210 HD
ENDBRANCH  14  32
BRANCH  15  34
HETATM   34  O3' GDP A 200      28.597   1.775  12.374  1.00 49.51    -0.390 OA
HETATM   35  H3' GDP A 200      29.513   1.946  12.556  1.00  0.00     0.210 HD
ENDBRANCH  15  34
ENDBRANCH  10  11
ENDBRANCH   9  10
ENDBRANCH   6   9
ENDBRANCH   5   6
ENDBRANCH   1   5
TORSDOF 9
ENDMDL
MODEL 17
REMARK VINA RESULT:      -4.9      7.651     10.291
REMARK  9 active torsions:
REMARK  status: ('A' for Active; 'I' for Inactive)
REMARK    1  A    between atoms: PB_1  and  O3A_5 
REMARK    2  A    between atoms: O3A_5  and  PA_6 
REMARK    3  A    between atoms: PA_6  and  O5'_9 
REMARK    4  A    between atoms: O5'_9  and  C5'_10 
REMARK    5  A    between atoms: C5'_10  and  C4'_13 
REMARK    6  A    between atoms: C3'_16  and  O3'_18 
REMARK    7  A    between atoms: C2'_20  and  O2'_22 
REMARK    8  A    between atoms: C1'_24  and  N9_26 
REMARK    9  A    between atoms: C2_36  and  N2_37 
ROOT
HETATM    1  PB  GDP A 200      30.816   3.361   8.448  1.00 45.17     0.431 P 
HETATM    2  O1B GDP A 200      31.815   3.547   9.566  1.00 47.62    -0.616 OA
HETATM    3  O2B GDP A 200      31.394   3.946   7.175  1.00 45.26    -0.616 OA
HETATM    4  O3B GDP A 200      29.520   4.062   8.826  1.00 49.16    -0.616 OA
ENDROOT
BRANCH   1   5
HETATM    5  O3A GDP A 200      30.428   1.827   8.189  1.00 41.56    -0.173 OA
BRANCH   5   6
HETATM    6  PA  GDP A 200      29.778   0.810   9.268  1.00 43.96     0.418 P 
HETATM    7  O1A GDP A 200      28.336   1.195   9.550  1.00 39.68    -0.624 OA
HETATM    8  O2A GDP A 200      30.611   0.715  10.542  1.00 42.88    -0.624 OA
BRANCH   6   9
HETATM    9  O5' GDP A 200      29.908  -0.577   8.448  1.00 49.58    -0.287 OA
BRANCH   9  10
HETATM   10  C5' GDP A 200      29.837  -1.827   9.163  1.00 47.95     0.216 C 
BRANCH  10  11
HETATM   11  C4' GDP A 200      29.055  -2.882   8.378  1.00 46.52     0.180 C 
HETATM   12  O4' GDP A 200      28.732  -2.396   7.061  1.00 48.00    -0.353 OA
HETATM   13  C1' GDP A 200      29.266  -3.280   6.065  1.00 46.38     0.262 C 
HETATM   14  C2' GDP A 200      30.390  -4.036   6.763  1.00 49.56     0.198 C 
HETATM   15  C3' GDP A 200      29.901  -4.130   8.200  1.00 50.13     0.182 C 
BRANCH  13  16
HETATM   16  N9  GDP A 200      29.778  -2.461   4.953  1.00 52.18    -0.297 N 
HETATM   17  C8  GDP A 200      29.446  -2.574   3.644  1.00 48.02     0.188 A 
HETATM   18  N7  GDP A 200      30.143  -1.660   2.902  1.00 46.70    -0.345 N 
HETATM   19  C5  GDP A 200      30.927  -0.963   3.743  1.00 50.22     0.147 A 
HETATM   20  H7  GDP A 200      30.079  -1.531   1.892  1.00  0.00     0.167 HD
HETATM   21  C6  GDP A 200      31.901   0.135   3.620  1.00 51.18     0.290 A 
HETATM   22  C4  GDP A 200      30.690  -1.496   5.094  1.00 52.08     0.159 A 
HETATM   23  O6  GDP A 200      32.155   0.639   2.494  1.00 54.79    -0.265 OA
HETATM   24  N1  GDP A 200      32.498   0.563   4.742  1.00 48.71    -0.154 N 
HETATM   25  C2  GDP A 200      32.243   0.038   5.959  1.00 51.40     0.680 A 
HETATM   26  H1  GDP A 200      33.176   1.321   4.672  1.00  0.00     0.187 HD
HETATM   27  N3  GDP A 200      31.356  -0.969   6.146  1.00 50.37    -0.174 N 
HETATM   28  H3  GDP A 200      31.190  -1.331   7.085  1.00  0.00     0.186 HD
BRANCH  25  29
HETATM   29  N2  GDP A 200      32.890   0.531   7.044  1.00 48.52    -0.234 N 
HETATM   30  H22 GDP A 200      33.556   1.290   6.902  1.00  0.00     0.174 HD
HETATM   31  H21 GDP A 200      32.699   0.133   7.963  1.00  0.00     0.174 HD
ENDBRANCH  25  29
ENDBRANCH  13  16
BRANCH  14  32
HETATM   32  O2' GDP A 200      30.627  -5.301   6.149  1.00 44.71    -0.388 OA
HETATM   33  H2' GDP A 200      31.476  -5.674   6.352  1.00  0.00     0.210 HD
ENDBRANCH  14  32
BRANCH  15  34
HETATM   34  O3' GDP A 200      29.076  -5.289   8.389  1.00 49.51    -0.390 OA
HETATM   35  H3' GDP A 200      28.508  -5.149   9.138  1.00  0.00     0.210 HD
ENDBRANCH  15  34
ENDBRANCH  10  11
ENDBRANCH   9  10
ENDBRANCH   6   9
ENDBRANCH   5   6
ENDBRANCH   1   5
TORSDOF 9
ENDMDL
MODEL 18
REMARK VINA RESULT:      -4.9      2.651      5.518
REMARK  9 active torsions:
REMARK  status: ('A' for Active; 'I' for Inactive)
REMARK    1  A    between atoms: PB_1  and  O3A_5 
REMARK    2  A    between atoms: O3A_5  and  PA_6 
REMARK    3  A    between atoms: PA_6  and  O5'_9 
REMARK    4  A    between atoms: O5'_9  and  C5'_10 
REMARK    5  A    between atoms: C5'_10  and  C4'_13 
REMARK    6  A    between atoms: C3'_16  and  O3'_18 
REMARK    7  A    between atoms: C2'_20  and  O2'_22 
REMARK    8  A    between atoms: C1'_24  and  N9_26 
REMARK    9  A    between atoms: C2_36  and  N2_37 
ROOT
HETATM    1  PB  GDP A 200      26.832  -3.669  15.239  1.00 45.17     0.431 P 
HETATM    2  O1B GDP A 200      26.851  -3.595  16.748  1.00 47.62    -0.616 OA
HETATM    3  O2B GDP A 200      27.769  -2.612  14.688  1.00 45.26    -0.616 OA
HETATM    4  O3B GDP A 200      25.408  -3.435  14.755  1.00 49.16    -0.616 OA
ENDROOT
BRANCH   1   5
HETATM    5  O3A GDP A 200      27.264  -5.101  14.665  1.00 41.56    -0.173 OA
BRANCH   5   6
HETATM    6  PA  GDP A 200      28.527  -5.988  15.157  1.00 43.96     0.418 P 
HETATM    7  O1A GDP A 200      28.047  -7.164  15.990  1.00 39.68    -0.624 OA
HETATM    8  O2A GDP A 200      29.568  -5.148  15.889  1.00 42.88    -0.624 OA
BRANCH   6   9
HETATM    9  O5' GDP A 200      29.122  -6.435  13.723  1.00 49.58    -0.287 OA
BRANCH   9  10
HETATM   10  C5' GDP A 200      29.135  -7.833  13.370  1.00 47.95     0.216 C 
BRANCH  10  11
HETATM   11  C4' GDP A 200      28.243  -8.117  12.160  1.00 46.52     0.180 C 
HETATM   12  O4' GDP A 200      27.182  -7.147  12.075  1.00 48.00    -0.353 OA
HETATM   13  C1' GDP A 200      27.231  -6.474  10.809  1.00 46.38     0.262 C 
HETATM   14  C2' GDP A 200      28.662  -6.651  10.317  1.00 49.56     0.198 C 
HETATM   15  C3' GDP A 200      29.054  -8.008  10.881  1.00 50.13     0.182 C 
BRANCH  13  16
HETATM   16  N9  GDP A 200      26.912  -5.054  11.033  1.00 52.18    -0.297 N 
HETATM   17  C8  GDP A 200      27.766  -4.085  11.445  1.00 48.02     0.188 A 
HETATM   18  N7  GDP A 200      27.103  -2.895  11.567  1.00 46.70    -0.345 N 
HETATM   19  C5  GDP A 200      25.818  -3.106  11.233  1.00 50.22     0.147 A 
HETATM   20  H7  GDP A 200      27.511  -2.006  11.858  1.00  0.00     0.167 HD
HETATM   21  C6  GDP A 200      24.596  -2.286  11.145  1.00 51.18     0.290 A 
HETATM   22  C4  GDP A 200      25.692  -4.531  10.887  1.00 52.08     0.159 A 
HETATM   23  O6  GDP A 200      24.631  -1.060  11.428  1.00 54.79    -0.265 OA
HETATM   24  N1  GDP A 200      23.467  -2.898  10.760  1.00 48.71    -0.154 N 
HETATM   25  C2  GDP A 200      23.406  -4.211  10.454  1.00 51.40     0.680 A 
HETATM   26  H1  GDP A 200      22.613  -2.344  10.696  1.00  0.00     0.187 HD
HETATM   27  N3  GDP A 200      24.490  -5.022  10.507  1.00 50.37    -0.174 N 
HETATM   28  H3  GDP A 200      24.399  -6.007  10.260  1.00  0.00     0.186 HD
BRANCH  25  29
HETATM   29  N2  GDP A 200      22.222  -4.750  10.072  1.00 48.52    -0.234 N 
HETATM   30  H22 GDP A 200      21.998  -4.762   9.077  1.00  0.00     0.174 HD
HETATM   31  H21 GDP A 200      21.590  -5.121  10.781  1.00  0.00     0.174 HD
ENDBRANCH  25  29
ENDBRANCH  13  16
BRANCH  14  32
HETATM   32  O2' GDP A 200      28.738  -6.573   8.895  1.00 44.71    -0.388 OA
HETATM   33  H2' GDP A 200      29.025  -5.728   8.571  1.00  0.00     0.210 HD
ENDBRANCH  14  32
BRANCH  15  34
HETATM   34  O3' GDP A 200      28.673  -9.067   9.990  1.00 49.51    -0.390 OA
HETATM   35  H3' GDP A 200      29.178  -8.998   9.188  1.00  0.00     0.210 HD
ENDBRANCH  15  34
ENDBRANCH  10  11
ENDBRANCH   9  10
ENDBRANCH   6   9
ENDBRANCH   5   6
ENDBRANCH   1   5
TORSDOF 9
ENDMDL
MODEL 19
REMARK VINA RESULT:      -4.8      3.873      6.848
REMARK  9 active torsions:
REMARK  status: ('A' for Active; 'I' for Inactive)
REMARK    1  A    between atoms: PB_1  and  O3A_5 
REMARK    2  A    between atoms: O3A_5  and  PA_6 
REMARK    3  A    between atoms: PA_6  and  O5'_9 
REMARK    4  A    between atoms: O5'_9  and  C5'_10 
REMARK    5  A    between atoms: C5'_10  and  C4'_13 
REMARK    6  A    between atoms: C3'_16  and  O3'_18 
REMARK    7  A    between atoms: C2'_20  and  O2'_22 
REMARK    8  A    between atoms: C1'_24  and  N9_26 
REMARK    9  A    between atoms: C2_36  and  N2_37 
ROOT
HETATM    1  PB  GDP A 200      24.461  -4.605  10.833  1.00 45.17     0.431 P 
HETATM    2  O1B GDP A 200      23.273  -5.314  10.226  1.00 47.62    -0.616 OA
HETATM    3  O2B GDP A 200      23.997  -3.833  12.052  1.00 45.26    -0.616 OA
HETATM    4  O3B GDP A 200      25.057  -3.668   9.793  1.00 49.16    -0.616 OA
ENDROOT
BRANCH   1   5
HETATM    5  O3A GDP A 200      25.644  -5.598  11.263  1.00 41.56    -0.173 OA
BRANCH   5   6
HETATM    6  PA  GDP A 200      27.193  -5.191  11.504  1.00 43.96     0.418 P 
HETATM    7  O1A GDP A 200      27.283  -3.793  12.090  1.00 39.68    -0.624 OA
HETATM    8  O2A GDP A 200      28.031  -5.344  10.239  1.00 42.88    -0.624 OA
BRANCH   6   9
HETATM    9  O5' GDP A 200      27.615  -6.342  12.558  1.00 49.58    -0.287 OA
BRANCH   9  10
HETATM   10  C5' GDP A 200      28.226  -5.962  13.808  1.00 47.95     0.216 C 
BRANCH  10  11
HETATM   11  C4' GDP A 200      28.362  -7.156  14.755  1.00 46.52     0.180 C 
HETATM   12  O4' GDP A 200      28.394  -8.389  14.012  1.00 48.00    -0.353 OA
HETATM   13  C1' GDP A 200      29.602  -9.107  14.304  1.00 46.38     0.262 C 
HETATM   14  C2' GDP A 200      30.576  -8.057  14.823  1.00 49.56     0.198 C 
HETATM   15  C3' GDP A 200      29.666  -7.061  15.525  1.00 50.13     0.182 C 
BRANCH  13  16
HETATM   16  N9  GDP A 200      30.085  -9.718  13.054  1.00 52.18    -0.297 N 
HETATM   17  C8  GDP A 200      31.177 -10.507  12.905  1.00 48.02     0.188 A 
HETATM   18  N7  GDP A 200      31.324 -10.864  11.593  1.00 46.70    -0.345 N 
HETATM   19  C5  GDP A 200      30.322 -10.296  10.900  1.00 50.22     0.147 A 
HETATM   20  H7  GDP A 200      32.062 -11.455  11.210  1.00  0.00     0.167 HD
HETATM   21  C6  GDP A 200      29.889 -10.268   9.491  1.00 51.18     0.290 A 
HETATM   22  C4  GDP A 200      29.509  -9.536  11.863  1.00 52.08     0.159 A 
HETATM   23  O6  GDP A 200      30.538 -10.895   8.613  1.00 54.79    -0.265 OA
HETATM   24  N1  GDP A 200      28.795  -9.553   9.194  1.00 48.71    -0.154 N 
HETATM   25  C2  GDP A 200      28.085  -8.872  10.118  1.00 51.40     0.680 A 
HETATM   26  H1  GDP A 200      28.485  -9.522   8.223  1.00  0.00     0.187 HD
HETATM   27  N3  GDP A 200      28.421  -8.859  11.430  1.00 50.37    -0.174 N 
HETATM   28  H3  GDP A 200      27.851  -8.336  12.095  1.00  0.00     0.186 HD
BRANCH  25  29
HETATM   29  N2  GDP A 200      26.988  -8.175   9.731  1.00 48.52    -0.234 N 
HETATM   30  H22 GDP A 200      26.240  -8.038  10.411  1.00  0.00     0.174 HD
HETATM   31  H21 GDP A 200      26.937  -7.812   8.779  1.00  0.00     0.174 HD
ENDBRANCH  25  29
ENDBRANCH  13  16
BRANCH  14  32
HETATM   32  O2' GDP A 200      31.563  -8.637  15.673  1.00 44.71    -0.388 OA
HETATM   33  H2' GDP A 200      31.460  -8.414  16.590  1.00  0.00     0.210 HD
ENDBRANCH  14  32
BRANCH  15  34
HETATM   34  O3' GDP A 200      29.436  -7.445  16.890  1.00 49.51    -0.390 OA
HETATM   35  H3' GDP A 200      29.721  -8.344  17.013  1.00  0.00     0.210 HD
ENDBRANCH  15  34
ENDBRANCH  10  11
ENDBRANCH   9  10
ENDBRANCH   6   9
ENDBRANCH   5   6
ENDBRANCH   1   5
TORSDOF 9
ENDMDL
MODEL 20
REMARK VINA RESULT:      -4.8      2.225      2.870
REMARK  9 active torsions:
REMARK  status: ('A' for Active; 'I' for Inactive)
REMARK    1  A    between atoms: PB_1  and  O3A_5 
REMARK    2  A    between atoms: O3A_5  and  PA_6 
REMARK    3  A    between atoms: PA_6  and  O5'_9 
REMARK    4  A    between atoms: O5'_9  and  C5'_10 
REMARK    5  A    between atoms: C5'_10  and  C4'_13 
REMARK    6  A    between atoms: C3'_16  and  O3'_18 
REMARK    7  A    between atoms: C2'_20  and  O2'_22 
REMARK    8  A    between atoms: C1'_24  and  N9_26 
REMARK    9  A    between atoms: C2_36  and  N2_37 
ROOT
HETATM    1  PB  GDP A 200      30.203  -8.915  13.486  1.00 45.17     0.431 P 
HETATM    2  O1B GDP A 200      31.326  -9.075  12.488  1.00 47.62    -0.616 OA
HETATM    3  O2B GDP A 200      30.638  -9.515  14.808  1.00 45.26    -0.616 OA
HETATM    4  O3B GDP A 200      28.967  -9.623  12.951  1.00 49.16    -0.616 OA
ENDROOT
BRANCH   1   5
HETATM    5  O3A GDP A 200      29.772  -7.390  13.720  1.00 41.56    -0.173 OA
BRANCH   5   6
HETATM    6  PA  GDP A 200      28.319  -6.872  14.215  1.00 43.96     0.418 P 
HETATM    7  O1A GDP A 200      27.834  -7.710  15.385  1.00 39.68    -0.624 OA
HETATM    8  O2A GDP A 200      27.307  -6.828  13.075  1.00 42.88    -0.624 OA
BRANCH   6   9
HETATM    9  O5' GDP A 200      28.700  -5.360  14.641  1.00 49.58    -0.287 OA
BRANCH   9  10
HETATM   10  C5' GDP A 200      27.765  -4.296  14.372  1.00 47.95     0.216 C 
BRANCH  10  11
HETATM   11  C4' GDP A 200      28.180  -3.475  13.150  1.00 46.52     0.180 C 
HETATM   12  O4' GDP A 200      27.378  -3.829  12.007  1.00 48.00    -0.353 OA
HETATM   13  C1' GDP A 200      26.707  -2.668  11.498  1.00 46.38     0.262 C 
HETATM   14  C2' GDP A 200      26.672  -1.685  12.661  1.00 49.56     0.198 C 
HETATM   15  C3' GDP A 200      27.954  -1.998  13.415  1.00 50.13     0.182 C 
BRANCH  13  16
HETATM   16  N9  GDP A 200      25.349  -3.066  11.089  1.00 52.18    -0.297 N 
HETATM   17  C8  GDP A 200      24.271  -2.255  10.956  1.00 48.02     0.188 A 
HETATM   18  N7  GDP A 200      23.176  -2.986  10.585  1.00 46.70    -0.345 N 
HETATM   19  C5  GDP A 200      23.557  -4.271  10.484  1.00 50.22     0.147 A 
HETATM   20  H7  GDP A 200      22.239  -2.621  10.415  1.00  0.00     0.167 HD
HETATM   21  C6  GDP A 200      22.905  -5.546  10.136  1.00 51.18     0.290 A 
HETATM   22  C4  GDP A 200      24.988  -4.324  10.822  1.00 52.08     0.159 A 
HETATM   23  O6  GDP A 200      21.683  -5.576   9.837  1.00 54.79    -0.265 OA
HETATM   24  N1  GDP A 200      23.661  -6.654  10.156  1.00 48.71    -0.154 N 
HETATM   25  C2  GDP A 200      24.973  -6.646  10.475  1.00 51.40     0.680 A 
HETATM   26  H1  GDP A 200      23.224  -7.544   9.920  1.00  0.00     0.187 HD
HETATM   27  N3  GDP A 200      25.637  -5.510  10.798  1.00 50.37    -0.174 N 
HETATM   28  H3  GDP A 200      26.631  -5.551  11.026  1.00  0.00     0.186 HD
BRANCH  25  29
HETATM   29  N2  GDP A 200      25.664  -7.813  10.469  1.00 48.52    -0.234 N 
HETATM   30  H22 GDP A 200      26.528  -7.863  11.008  1.00  0.00     0.174 HD
HETATM   31  H21 GDP A 200      25.309  -8.601   9.928  1.00  0.00     0.174 HD
ENDBRANCH  25  29
ENDBRANCH  13  16
BRANCH  14  32
HETATM   32  O2' GDP A 200      26.586  -0.337  12.201  1.00 44.71    -0.388 OA
HETATM   33  H2' GDP A 200      27.103   0.276  12.709  1.00  0.00     0.210 HD
ENDBRANCH  14  32
BRANCH  15  34
HETATM   34  O3' GDP A 200      29.060  -1.250  12.886  1.00 49.51    -0.390 OA
HETATM   35  H3' GDP A 200      28.843  -0.950  12.011  1.00  0.00     0.210 HD
ENDBRANCH  15  34
ENDBRANCH  10  11
ENDBRANCH   9  10
ENDBRANCH   6   9
ENDBRANCH   5   6
ENDBRANCH   1   5
TORSDOF 9
ENDMDL
