MODEL 1
REMARK VINA RESULT:      -5.1      0.000      0.000
REMARK  5 active torsions:
REMARK  status: ('A' for Active; 'I' for Inactive)
REMARK    1  A    between atoms: C2_4  and  N2_20 
REMARK    2  A    between atoms: C3_6  and  O3_22 
REMARK    3  A    between atoms: C4_8  and  O4_24 
REMARK    4  A    between atoms: C5_10  and  C6_12 
REMARK    5  A    between atoms: C6_12  and  O6_27 
REMARK       I    between atoms: C7_15  and  N2_20 
ROOT
HETATM    1  C1  NAG A 700      59.345 185.137 160.702  1.00237.24     0.196 C 
HETATM    2  C2  NAG A 700      59.676 186.560 160.258  1.00284.04     0.139 C 
HETATM    3  C3  NAG A 700      58.471 187.475 160.475  1.00318.04     0.174 C 
HETATM    4  C4  NAG A 700      57.235 186.898 159.796  1.00298.92     0.180 C 
HETATM    5  C5  NAG A 700      57.003 185.462 160.257  1.00297.28     0.176 C 
HETATM    6  O5  NAG A 700      58.180 184.676 160.012  1.00257.71    -0.379 OA
ENDROOT
BRANCH   2   7
HETATM    7  N2  NAG A 700      60.837 187.072 160.968  1.00326.77    -0.352 N 
HETATM    8  C7  NAG A 700      62.058 187.127 160.426  1.00328.74     0.214 C 
HETATM    9  C8  NAG A 700      63.139 187.689 161.298  1.00328.56     0.117 C 
HETATM   10  O7  NAG A 700      62.280 186.740 159.283  1.00327.57    -0.274 OA
HETATM   11  H2  NAG A 700      60.714 187.405 161.924  1.00  0.00     0.163 HD
ENDBRANCH   2   7
BRANCH   3  12
HETATM   12  O3  NAG A 700      58.754 188.767 159.950  1.00322.86    -0.391 OA
HETATM   13  H3  NAG A 700      59.694 188.876 159.862  1.00  0.00     0.210 HD
ENDBRANCH   3  12
BRANCH   5  14
HETATM   14  C6  NAG A 700      55.868 184.783 159.527  1.00300.81     0.198 C 
BRANCH  14  15
HETATM   15  O6  NAG A 700      54.604 185.218 160.010  1.00307.66    -0.398 OA
HETATM   16  H6  NAG A 700      53.940 184.548 159.900  1.00  0.00     0.209 HD
ENDBRANCH  14  15
ENDBRANCH   5  14
BRANCH   4  17
HETATM   17  O4  NAG A 700      56.091 187.682 160.120  1.00303.14    -0.390 OA
HETATM   18  H4  NAG A 700      55.902 188.288 159.414  1.00  0.00     0.210 HD
ENDBRANCH   4  17
TORSDOF 5
ENDMDL
MODEL 2
REMARK VINA RESULT:      -4.9      2.492      4.804
REMARK  5 active torsions:
REMARK  status: ('A' for Active; 'I' for Inactive)
REMARK    1  A    between atoms: C2_4  and  N2_20 
REMARK    2  A    between atoms: C3_6  and  O3_22 
REMARK    3  A    between atoms: C4_8  and  O4_24 
REMARK    4  A    between atoms: C5_10  and  C6_12 
REMARK    5  A    between atoms: C6_12  and  O6_27 
REMARK       I    between atoms: C7_15  and  N2_20 
ROOT
HETATM    1  C1  NAG A 700      59.572 184.742 160.483  1.00237.24     0.196 C 
HETATM    2  C2  NAG A 700      58.108 184.374 160.718  1.00284.04     0.139 C 
HETATM    3  C3  NAG A 700      57.194 185.462 160.157  1.00318.04     0.174 C 
HETATM    4  C4  NAG A 700      57.578 186.825 160.721  1.00298.92     0.180 C 
HETATM    5  C5  NAG A 700      59.061 187.092 160.487  1.00297.28     0.176 C 
HETATM    6  O5  NAG A 700      59.843 186.027 161.049  1.00257.71    -0.379 OA
ENDROOT
BRANCH   2   7
HETATM    7  N2  NAG A 700      57.790 183.086 160.124  1.00326.77    -0.352 N 
HETATM    8  C7  NAG A 700      57.497 182.000 160.847  1.00328.74     0.214 C 
HETATM    9  C8  NAG A 700      57.189 180.757 160.070  1.00328.56     0.117 C 
HETATM   10  O7  NAG A 700      57.482 182.021 162.073  1.00327.57    -0.274 OA
HETATM   11  H2  NAG A 700      57.791 183.007 159.107  1.00  0.00     0.163 HD
ENDBRANCH   2   7
BRANCH   3  12
HETATM   12  O3  NAG A 700      55.842 185.165 160.487  1.00322.86    -0.391 OA
HETATM   13  H3  NAG A 700      55.760 184.240 160.691  1.00  0.00     0.210 HD
ENDBRANCH   3  12
BRANCH   5  14
HETATM   14  C6  NAG A 700      59.540 188.370 161.135  1.00300.81     0.198 C 
BRANCH  14  15
HETATM   15  O6  NAG A 700      58.613 188.843 162.103  1.00307.66    -0.398 OA
HETATM   16  H6  NAG A 700      58.999 188.871 162.970  1.00  0.00     0.209 HD
ENDBRANCH  14  15
ENDBRANCH   5  14
BRANCH   4  17
HETATM   17  O4  NAG A 700      56.814 187.846 160.088  1.00303.14    -0.390 OA
HETATM   18  H4  NAG A 700      55.890 187.630 160.124  1.00  0.00     0.210 HD
ENDBRANCH   4  17
TORSDOF 5
ENDMDL
MODEL 3
REMARK VINA RESULT:      -4.8     11.259     12.792
REMARK  5 active torsions:
REMARK  status: ('A' for Active; 'I' for Inactive)
REMARK    1  A    between atoms: C2_4  and  N2_20 
REMARK    2  A    between atoms: C3_6  and  O3_22 
REMARK    3  A    between atoms: C4_8  and  O4_24 
REMARK    4  A    between atoms: C5_10  and  C6_12 
REMARK    5  A    between atoms: C6_12  and  O6_27 
REMARK       I    between atoms: C7_15  and  N2_20 
ROOT
HETATM    1  C1  NAG A 700      62.716 183.691 172.440  1.00237.24     0.196 C 
HETATM    2  C2  NAG A 700      62.489 183.088 171.055  1.00284.04     0.139 C 
HETATM    3  C3  NAG A 700      63.544 183.600 170.076  1.00318.04     0.174 C 
HETATM    4  C4  NAG A 700      63.580 185.123 170.078  1.00298.92     0.180 C 
HETATM    5  C5  NAG A 700      63.761 185.644 171.500  1.00297.28     0.176 C 
HETATM    6  O5  NAG A 700      62.728 185.118 172.347  1.00257.71    -0.379 OA
ENDROOT
BRANCH   2   7
HETATM    7  N2  NAG A 700      62.507 181.635 171.109  1.00326.77    -0.352 N 
HETATM    8  C7  NAG A 700      61.400 180.895 171.233  1.00328.74     0.214 C 
HETATM    9  C8  NAG A 700      61.603 179.411 171.267  1.00328.56     0.117 C 
HETATM   10  O7  NAG A 700      60.286 181.401 171.315  1.00327.57    -0.274 OA
HETATM   11  H2  NAG A 700      63.406 181.157 171.049  1.00  0.00     0.163 HD
ENDBRANCH   2   7
BRANCH   3  12
HETATM   12  O3  NAG A 700      63.251 183.123 168.768  1.00322.86    -0.391 OA
HETATM   13  H3  NAG A 700      64.062 182.955 168.301  1.00  0.00     0.210 HD
ENDBRANCH   3  12
BRANCH   5  14
HETATM   14  C6  NAG A 700      63.675 187.149 171.593  1.00300.81     0.198 C 
BRANCH  14  15
HETATM   15  O6  NAG A 700      62.846 187.558 172.673  1.00307.66    -0.398 OA
HETATM   16  H6  NAG A 700      63.038 187.069 173.464  1.00  0.00     0.209 HD
ENDBRANCH  14  15
ENDBRANCH   5  14
BRANCH   4  17
HETATM   17  O4  NAG A 700      64.657 185.586 169.270  1.00303.14    -0.390 OA
HETATM   18  H4  NAG A 700      65.242 186.125 169.787  1.00  0.00     0.210 HD
ENDBRANCH   4  17
TORSDOF 5
ENDMDL
MODEL 4
REMARK VINA RESULT:      -4.8     10.074     12.485
REMARK  5 active torsions:
REMARK  status: ('A' for Active; 'I' for Inactive)
REMARK    1  A    between atoms: C2_4  and  N2_20 
REMARK    2  A    between atoms: C3_6  and  O3_22 
REMARK    3  A    between atoms: C4_8  and  O4_24 
REMARK    4  A    between atoms: C5_10  and  C6_12 
REMARK    5  A    between atoms: C6_12  and  O6_27 
REMARK       I    between atoms: C7_15  and  N2_20 
ROOT
HETATM    1  C1  NAG A 700      53.502 177.679 166.791  1.00237.24     0.196 C 
HETATM    2  C2  NAG A 700      52.259 178.562 166.890  1.00284.04     0.139 C 
HETATM    3  C3  NAG A 700      51.604 178.707 165.518  1.00318.04     0.174 C 
HETATM    4  C4  NAG A 700      52.617 179.196 164.491  1.00298.92     0.180 C 
HETATM    5  C5  NAG A 700      53.844 178.289 164.489  1.00297.28     0.176 C 
HETATM    6  O5  NAG A 700      54.397 178.215 165.813  1.00257.71    -0.379 OA
ENDROOT
BRANCH   2   7
HETATM    7  N2  NAG A 700      51.312 178.024 167.853  1.00326.77    -0.352 N 
HETATM    8  C7  NAG A 700      50.641 178.788 168.723  1.00328.74     0.214 C 
HETATM    9  C8  NAG A 700      49.701 178.067 169.640  1.00328.56     0.117 C 
HETATM   10  O7  NAG A 700      50.789 180.005 168.767  1.00327.57    -0.274 OA
HETATM   11  H2  NAG A 700      51.150 177.017 167.866  1.00  0.00     0.163 HD
ENDBRANCH   2   7
BRANCH   3  12
HETATM   12  O3  NAG A 700      50.519 179.624 165.603  1.00322.86    -0.391 OA
HETATM   13  H3  NAG A 700      50.850 180.489 165.818  1.00  0.00     0.210 HD
ENDBRANCH   3  12
BRANCH   5  14
HETATM   14  C6  NAG A 700      54.947 178.790 163.586  1.00300.81     0.198 C 
BRANCH  14  15
HETATM   15  O6  NAG A 700      54.992 180.210 163.557  1.00307.66    -0.398 OA
HETATM   16  H6  NAG A 700      55.024 180.539 162.667  1.00  0.00     0.209 HD
ENDBRANCH  14  15
ENDBRANCH   5  14
BRANCH   4  17
HETATM   17  O4  NAG A 700      52.034 179.194 163.192  1.00303.14    -0.390 OA
HETATM   18  H4  NAG A 700      51.253 179.734 163.186  1.00  0.00     0.210 HD
ENDBRANCH   4  17
TORSDOF 5
ENDMDL
MODEL 5
REMARK VINA RESULT:      -4.7     11.591     13.186
REMARK  5 active torsions:
REMARK  status: ('A' for Active; 'I' for Inactive)
REMARK    1  A    between atoms: C2_4  and  N2_20 
REMARK    2  A    between atoms: C3_6  and  O3_22 
REMARK    3  A    between atoms: C4_8  and  O4_24 
REMARK    4  A    between atoms: C5_10  and  C6_12 
REMARK    5  A    between atoms: C6_12  and  O6_27 
REMARK       I    between atoms: C7_15  and  N2_20 
ROOT
HETATM    1  C1  NAG A 700      50.329 177.774 166.995  1.00237.24     0.196 C 
HETATM    2  C2  NAG A 700      51.175 178.486 165.941  1.00284.04     0.139 C 
HETATM    3  C3  NAG A 700      52.639 178.069 166.070  1.00318.04     0.174 C 
HETATM    4  C4  NAG A 700      53.133 178.286 167.495  1.00298.92     0.180 C 
HETATM    5  C5  NAG A 700      52.208 177.583 168.485  1.00297.28     0.176 C 
HETATM    6  O5  NAG A 700      50.859 178.037 168.296  1.00257.71    -0.379 OA
ENDROOT
BRANCH   2   7
HETATM    7  N2  NAG A 700      50.683 178.210 164.601  1.00326.77    -0.352 N 
HETATM    8  C7  NAG A 700      50.568 179.150 163.657  1.00328.74     0.214 C 
HETATM    9  C8  NAG A 700      50.048 178.687 162.330  1.00328.56     0.117 C 
HETATM   10  O7  NAG A 700      50.870 180.320 163.866  1.00327.57    -0.274 OA
HETATM   11  H2  NAG A 700      50.413 177.254 164.370  1.00  0.00     0.163 HD
ENDBRANCH   2   7
BRANCH   3  12
HETATM   12  O3  NAG A 700      53.431 178.827 165.163  1.00322.86    -0.391 OA
HETATM   13  H3  NAG A 700      52.865 179.346 164.602  1.00  0.00     0.210 HD
ENDBRANCH   3  12
BRANCH   5  14
HETATM   14  C6  NAG A 700      52.563 177.864 169.926  1.00300.81     0.198 C 
BRANCH  14  15
HETATM   15  O6  NAG A 700      53.341 179.047 170.050  1.00307.66    -0.398 OA
HETATM   16  H6  NAG A 700      53.639 179.176 170.943  1.00  0.00     0.209 HD
ENDBRANCH  14  15
ENDBRANCH   5  14
BRANCH   4  17
HETATM   17  O4  NAG A 700      54.450 177.766 167.639  1.00303.14    -0.390 OA
HETATM   18  H4  NAG A 700      55.062 178.287 167.133  1.00  0.00     0.210 HD
ENDBRANCH   4  17
TORSDOF 5
ENDMDL
MODEL 6
REMARK VINA RESULT:      -4.7     11.583     13.659
REMARK  5 active torsions:
REMARK  status: ('A' for Active; 'I' for Inactive)
REMARK    1  A    between atoms: C2_4  and  N2_20 
REMARK    2  A    between atoms: C3_6  and  O3_22 
REMARK    3  A    between atoms: C4_8  and  O4_24 
REMARK    4  A    between atoms: C5_10  and  C6_12 
REMARK    5  A    between atoms: C6_12  and  O6_27 
REMARK       I    between atoms: C7_15  and  N2_20 
ROOT
HETATM    1  C1  NAG A 700      51.334 177.392 167.297  1.00237.24     0.196 C 
HETATM    2  C2  NAG A 700      51.387 178.380 168.460  1.00284.04     0.139 C 
HETATM    3  C3  NAG A 700      50.629 179.657 168.104  1.00318.04     0.174 C 
HETATM    4  C4  NAG A 700      51.143 180.234 166.791  1.00298.92     0.180 C 
HETATM    5  C5  NAG A 700      51.101 179.172 165.696  1.00297.28     0.176 C 
HETATM    6  O5  NAG A 700      51.840 178.014 166.113  1.00257.71    -0.379 OA
ENDROOT
BRANCH   2   7
HETATM    7  N2  NAG A 700      50.846 177.789 169.674  1.00326.77    -0.352 N 
HETATM    8  C7  NAG A 700      51.614 177.315 170.661  1.00328.74     0.214 C 
HETATM    9  C8  NAG A 700      50.888 176.745 171.841  1.00328.56     0.117 C 
HETATM   10  O7  NAG A 700      52.839 177.346 170.603  1.00327.57    -0.274 OA
HETATM   11  H2  NAG A 700      49.833 177.732 169.777  1.00  0.00     0.163 HD
ENDBRANCH   2   7
BRANCH   3  12
HETATM   12  O3  NAG A 700      50.786 180.611 169.148  1.00322.86    -0.391 OA
HETATM   13  H3  NAG A 700      50.688 181.488 168.795  1.00  0.00     0.210 HD
ENDBRANCH   3  12
BRANCH   5  14
HETATM   14  C6  NAG A 700      51.718 179.637 164.398  1.00300.81     0.198 C 
BRANCH  14  15
HETATM   15  O6  NAG A 700      50.786 180.368 163.611  1.00307.66    -0.398 OA
HETATM   16  H6  NAG A 700      49.902 180.275 163.943  1.00  0.00     0.209 HD
ENDBRANCH  14  15
ENDBRANCH   5  14
BRANCH   4  17
HETATM   17  O4  NAG A 700      50.339 181.342 166.398  1.00303.14    -0.390 OA
HETATM   18  H4  NAG A 700      50.282 181.382 165.451  1.00  0.00     0.210 HD
ENDBRANCH   4  17
TORSDOF 5
ENDMDL
MODEL 7
REMARK VINA RESULT:      -4.6      9.685     11.468
REMARK  5 active torsions:
REMARK  status: ('A' for Active; 'I' for Inactive)
REMARK    1  A    between atoms: C2_4  and  N2_20 
REMARK    2  A    between atoms: C3_6  and  O3_22 
REMARK    3  A    between atoms: C4_8  and  O4_24 
REMARK    4  A    between atoms: C5_10  and  C6_12 
REMARK    5  A    between atoms: C6_12  and  O6_27 
REMARK       I    between atoms: C7_15  and  N2_20 
ROOT
HETATM    1  C1  NAG A 700      52.841 177.943 165.808  1.00237.24     0.196 C 
HETATM    2  C2  NAG A 700      52.128 178.438 164.551  1.00284.04     0.139 C 
HETATM    3  C3  NAG A 700      51.637 179.871 164.752  1.00318.04     0.174 C 
HETATM    4  C4  NAG A 700      50.789 179.973 166.013  1.00298.92     0.180 C 
HETATM    5  C5  NAG A 700      51.554 179.415 167.210  1.00297.28     0.176 C 
HETATM    6  O5  NAG A 700      51.971 178.069 166.936  1.00257.71    -0.379 OA
ENDROOT
BRANCH   2   7
HETATM    7  N2  NAG A 700      52.998 178.357 163.390  1.00326.77    -0.352 N 
HETATM    8  C7  NAG A 700      54.277 178.746 163.406  1.00328.74     0.214 C 
HETATM    9  C8  NAG A 700      55.029 178.587 162.120  1.00328.56     0.117 C 
HETATM   10  O7  NAG A 700      54.803 179.208 164.414  1.00327.57    -0.274 OA
HETATM   11  H2  NAG A 700      52.615 177.984 162.521  1.00  0.00     0.163 HD
ENDBRANCH   2   7
BRANCH   3  12
HETATM   12  O3  NAG A 700      50.875 180.277 163.621  1.00322.86    -0.391 OA
HETATM   13  H3  NAG A 700      50.741 181.217 163.648  1.00  0.00     0.210 HD
ENDBRANCH   3  12
BRANCH   5  14
HETATM   14  C6  NAG A 700      50.724 179.365 168.471  1.00300.81     0.198 C 
BRANCH  14  15
HETATM   15  O6  NAG A 700      50.693 180.627 169.125  1.00307.66    -0.398 OA
HETATM   16  H6  NAG A 700      49.802 180.927 169.260  1.00  0.00     0.209 HD
ENDBRANCH  14  15
ENDBRANCH   5  14
BRANCH   4  17
HETATM   17  O4  NAG A 700      50.454 181.333 166.267  1.00303.14    -0.390 OA
HETATM   18  H4  NAG A 700      51.244 181.854 166.341  1.00  0.00     0.210 HD
ENDBRANCH   4  17
TORSDOF 5
ENDMDL
MODEL 8
REMARK VINA RESULT:      -4.6      3.012      4.803
REMARK  5 active torsions:
REMARK  status: ('A' for Active; 'I' for Inactive)
REMARK    1  A    between atoms: C2_4  and  N2_20 
REMARK    2  A    between atoms: C3_6  and  O3_22 
REMARK    3  A    between atoms: C4_8  and  O4_24 
REMARK    4  A    between atoms: C5_10  and  C6_12 
REMARK    5  A    between atoms: C6_12  and  O6_27 
REMARK       I    between atoms: C7_15  and  N2_20 
ROOT
HETATM    1  C1  NAG A 700      59.324 184.315 159.044  1.00237.24     0.196 C 
HETATM    2  C2  NAG A 700      58.727 183.204 159.905  1.00284.04     0.139 C 
HETATM    3  C3  NAG A 700      57.217 183.396 160.043  1.00318.04     0.174 C 
HETATM    4  C4  NAG A 700      56.902 184.796 160.552  1.00298.92     0.180 C 
HETATM    5  C5  NAG A 700      57.572 185.842 159.667  1.00297.28     0.176 C 
HETATM    6  O5  NAG A 700      58.984 185.588 159.598  1.00257.71    -0.379 OA
ENDROOT
BRANCH   2   7
HETATM    7  N2  NAG A 700      59.024 181.894 159.349  1.00326.77    -0.352 N 
HETATM    8  C7  NAG A 700      59.280 180.820 160.104  1.00328.74     0.214 C 
HETATM    9  C8  NAG A 700      59.562 179.549 159.364  1.00328.56     0.117 C 
HETATM   10  O7  NAG A 700      59.285 180.875 161.330  1.00327.57    -0.274 OA
HETATM   11  H2  NAG A 700      59.039 181.788 158.335  1.00  0.00     0.163 HD
ENDBRANCH   2   7
BRANCH   3  12
HETATM   12  O3  NAG A 700      56.694 182.424 160.942  1.00322.86    -0.391 OA
HETATM   13  H3  NAG A 700      55.767 182.583 161.078  1.00  0.00     0.210 HD
ENDBRANCH   3  12
BRANCH   5  14
HETATM   14  C6  NAG A 700      57.409 187.250 160.188  1.00300.81     0.198 C 
BRANCH  14  15
HETATM   15  O6  NAG A 700      56.093 187.739 159.964  1.00307.66    -0.398 OA
HETATM   16  H6  NAG A 700      55.566 187.692 160.753  1.00  0.00     0.209 HD
ENDBRANCH  14  15
ENDBRANCH   5  14
BRANCH   4  17
HETATM   17  O4  NAG A 700      55.494 185.012 160.545  1.00303.14    -0.390 OA
HETATM   18  H4  NAG A 700      55.305 185.916 160.322  1.00  0.00     0.210 HD
ENDBRANCH   4  17
TORSDOF 5
ENDMDL
MODEL 9
REMARK VINA RESULT:      -4.5     12.191     13.259
REMARK  5 active torsions:
REMARK  status: ('A' for Active; 'I' for Inactive)
REMARK    1  A    between atoms: C2_4  and  N2_20 
REMARK    2  A    between atoms: C3_6  and  O3_22 
REMARK    3  A    between atoms: C4_8  and  O4_24 
REMARK    4  A    between atoms: C5_10  and  C6_12 
REMARK    5  A    between atoms: C6_12  and  O6_27 
REMARK       I    between atoms: C7_15  and  N2_20 
ROOT
HETATM    1  C1  NAG A 700      52.407 177.226 165.720  1.00237.24     0.196 C 
HETATM    2  C2  NAG A 700      51.319 178.293 165.813  1.00284.04     0.139 C 
HETATM    3  C3  NAG A 700      51.812 179.479 166.640  1.00318.04     0.174 C 
HETATM    4  C4  NAG A 700      52.321 179.010 167.996  1.00298.92     0.180 C 
HETATM    5  C5  NAG A 700      53.367 177.914 167.816  1.00297.28     0.176 C 
HETATM    6  O5  NAG A 700      52.818 176.841 167.035  1.00257.71    -0.379 OA
ENDROOT
BRANCH   2   7
HETATM    7  N2  NAG A 700      50.903 178.732 164.491  1.00326.77    -0.352 N 
HETATM    8  C7  NAG A 700      49.970 178.099 163.771  1.00328.74     0.214 C 
HETATM    9  C8  NAG A 700      49.661 178.692 162.430  1.00328.56     0.117 C 
HETATM   10  O7  NAG A 700      49.403 177.093 164.184  1.00327.57    -0.274 OA
HETATM   11  H2  NAG A 700      51.343 179.561 164.093  1.00  0.00     0.163 HD
ENDBRANCH   2   7
BRANCH   3  12
HETATM   12  O3  NAG A 700      50.750 180.411 166.816  1.00322.86    -0.391 OA
HETATM   13  H3  NAG A 700      50.745 181.028 166.093  1.00  0.00     0.210 HD
ENDBRANCH   3  12
BRANCH   5  14
HETATM   14  C6  NAG A 700      53.822 177.310 169.124  1.00300.81     0.198 C 
BRANCH  14  15
HETATM   15  O6  NAG A 700      55.237 177.191 169.179  1.00307.66    -0.398 OA
HETATM   16  H6  NAG A 700      55.505 176.302 169.377  1.00  0.00     0.209 HD
ENDBRANCH  14  15
ENDBRANCH   5  14
BRANCH   4  17
HETATM   17  O4  NAG A 700      52.905 180.100 168.702  1.00303.14    -0.390 OA
HETATM   18  H4  NAG A 700      53.851 180.018 168.703  1.00  0.00     0.210 HD
ENDBRANCH   4  17
TORSDOF 5
ENDMDL
MODEL 10
REMARK VINA RESULT:      -4.5     11.052     13.449
REMARK  5 active torsions:
REMARK  status: ('A' for Active; 'I' for Inactive)
REMARK    1  A    between atoms: C2_4  and  N2_20 
REMARK    2  A    between atoms: C3_6  and  O3_22 
REMARK    3  A    between atoms: C4_8  and  O4_24 
REMARK    4  A    between atoms: C5_10  and  C6_12 
REMARK    5  A    between atoms: C6_12  and  O6_27 
REMARK       I    between atoms: C7_15  and  N2_20 
ROOT
HETATM    1  C1  NAG A 700      51.677 175.889 164.467  1.00237.24     0.196 C 
HETATM    2  C2  NAG A 700      50.682 177.036 164.302  1.00284.04     0.139 C 
HETATM    3  C3  NAG A 700      51.384 178.266 163.729  1.00318.04     0.174 C 
HETATM    4  C4  NAG A 700      52.599 178.630 164.574  1.00298.92     0.180 C 
HETATM    5  C5  NAG A 700      53.514 177.419 164.729  1.00297.28     0.176 C 
HETATM    6  O5  NAG A 700      52.775 176.316 165.276  1.00257.71    -0.379 OA
ENDROOT
BRANCH   2   7
HETATM    7  N2  NAG A 700      49.568 176.645 163.454  1.00326.77    -0.352 N 
HETATM    8  C7  NAG A 700      48.333 176.434 163.921  1.00328.74     0.214 C 
HETATM    9  C8  NAG A 700      47.305 176.042 162.905  1.00328.56     0.117 C 
HETATM   10  O7  NAG A 700      48.059 176.555 165.111  1.00327.57    -0.274 OA
HETATM   11  H2  NAG A 700      49.736 176.525 162.455  1.00  0.00     0.163 HD
ENDBRANCH   2   7
BRANCH   3  12
HETATM   12  O3  NAG A 700      50.475 179.360 163.692  1.00322.86    -0.391 OA
HETATM   13  H3  NAG A 700      50.940 180.153 163.454  1.00  0.00     0.210 HD
ENDBRANCH   3  12
BRANCH   5  14
HETATM   14  C6  NAG A 700      54.674 177.671 165.663  1.00300.81     0.198 C 
BRANCH  14  15
HETATM   15  O6  NAG A 700      55.613 178.576 165.097  1.00307.66    -0.398 OA
HETATM   16  H6  NAG A 700      56.485 178.201 165.069  1.00  0.00     0.209 HD
ENDBRANCH  14  15
ENDBRANCH   5  14
BRANCH   4  17
HETATM   17  O4  NAG A 700      53.324 179.687 163.956  1.00303.14    -0.390 OA
HETATM   18  H4  NAG A 700      53.469 180.389 164.579  1.00  0.00     0.210 HD
ENDBRANCH   4  17
TORSDOF 5
ENDMDL
MODEL 11
REMARK VINA RESULT:      -4.5     12.345     14.236
REMARK  5 active torsions:
REMARK  status: ('A' for Active; 'I' for Inactive)
REMARK    1  A    between atoms: C2_4  and  N2_20 
REMARK    2  A    between atoms: C3_6  and  O3_22 
REMARK    3  A    between atoms: C4_8  and  O4_24 
REMARK    4  A    between atoms: C5_10  and  C6_12 
REMARK    5  A    between atoms: C6_12  and  O6_27 
REMARK       I    between atoms: C7_15  and  N2_20 
ROOT
HETATM    1  C1  NAG A 700      51.838 178.715 165.645  1.00237.24     0.196 C 
HETATM    2  C2  NAG A 700      50.590 177.874 165.908  1.00284.04     0.139 C 
HETATM    3  C3  NAG A 700      49.853 178.394 167.141  1.00318.04     0.174 C 
HETATM    4  C4  NAG A 700      50.798 178.471 168.334  1.00298.92     0.180 C 
HETATM    5  C5  NAG A 700      52.036 179.286 167.973  1.00297.28     0.176 C 
HETATM    6  O5  NAG A 700      52.666 178.726 166.810  1.00257.71    -0.379 OA
ENDROOT
BRANCH   2   7
HETATM    7  N2  NAG A 700      49.708 177.871 164.752  1.00326.77    -0.352 N 
HETATM    8  C7  NAG A 700      49.043 176.786 164.343  1.00328.74     0.214 C 
HETATM    9  C8  NAG A 700      48.174 176.964 163.135  1.00328.56     0.117 C 
HETATM   10  O7  NAG A 700      49.139 175.709 164.923  1.00327.57    -0.274 OA
HETATM   11  H2  NAG A 700      49.592 178.738 164.227  1.00  0.00     0.163 HD
ENDBRANCH   2   7
BRANCH   3  12
HETATM   12  O3  NAG A 700      48.762 177.532 167.442  1.00322.86    -0.391 OA
HETATM   13  H3  NAG A 700      48.923 177.090 168.267  1.00  0.00     0.210 HD
ENDBRANCH   3  12
BRANCH   5  14
HETATM   14  C6  NAG A 700      53.077 179.295 169.068  1.00300.81     0.198 C 
BRANCH  14  15
HETATM   15  O6  NAG A 700      54.341 178.857 168.589  1.00307.66    -0.398 OA
HETATM   16  H6  NAG A 700      54.813 179.560 168.159  1.00  0.00     0.209 HD
ENDBRANCH  14  15
ENDBRANCH   5  14
BRANCH   4  17
HETATM   17  O4  NAG A 700      50.140 179.086 169.437  1.00303.14    -0.390 OA
HETATM   18  H4  NAG A 700      50.471 179.967 169.563  1.00  0.00     0.210 HD
ENDBRANCH   4  17
TORSDOF 5
ENDMDL
MODEL 12
REMARK VINA RESULT:      -4.4     12.219     13.541
REMARK  5 active torsions:
REMARK  status: ('A' for Active; 'I' for Inactive)
REMARK    1  A    between atoms: C2_4  and  N2_20 
REMARK    2  A    between atoms: C3_6  and  O3_22 
REMARK    3  A    between atoms: C4_8  and  O4_24 
REMARK    4  A    between atoms: C5_10  and  C6_12 
REMARK    5  A    between atoms: C6_12  and  O6_27 
REMARK       I    between atoms: C7_15  and  N2_20 
ROOT
HETATM    1  C1  NAG A 700      62.596 184.499 172.732  1.00237.24     0.196 C 
HETATM    2  C2  NAG A 700      62.072 183.250 172.026  1.00284.04     0.139 C 
HETATM    3  C3  NAG A 700      63.227 182.480 171.389  1.00318.04     0.174 C 
HETATM    4  C4  NAG A 700      64.043 183.394 170.484  1.00298.92     0.180 C 
HETATM    5  C5  NAG A 700      64.486 184.636 171.251  1.00297.28     0.176 C 
HETATM    6  O5  NAG A 700      63.340 185.298 171.809  1.00257.71    -0.379 OA
ENDROOT
BRANCH   2   7
HETATM    7  N2  NAG A 700      61.338 182.398 172.947  1.00326.77    -0.352 N 
HETATM    8  C7  NAG A 700      60.342 181.593 172.563  1.00328.74     0.214 C 
HETATM    9  C8  NAG A 700      59.699 180.780 173.644  1.00328.56     0.117 C 
HETATM   10  O7  NAG A 700      59.977 181.525 171.393  1.00327.57    -0.274 OA
HETATM   11  H2  NAG A 700      61.595 182.414 173.934  1.00  0.00     0.163 HD
ENDBRANCH   2   7
BRANCH   3  12
HETATM   12  O3  NAG A 700      62.713 181.386 170.638  1.00322.86    -0.391 OA
HETATM   13  H3  NAG A 700      62.000 181.687 170.086  1.00  0.00     0.210 HD
ENDBRANCH   3  12
BRANCH   5  14
HETATM   14  C6  NAG A 700      65.190 185.649 170.379  1.00300.81     0.198 C 
BRANCH  14  15
HETATM   15  O6  NAG A 700      66.467 185.181 169.964  1.00307.66    -0.398 OA
HETATM   16  H6  NAG A 700      66.887 184.668 170.644  1.00  0.00     0.209 HD
ENDBRANCH  14  15
ENDBRANCH   5  14
BRANCH   4  17
HETATM   17  O4  NAG A 700      65.194 182.705 170.006  1.00303.14    -0.390 OA
HETATM   18  H4  NAG A 700      65.175 181.801 170.295  1.00  0.00     0.210 HD
ENDBRANCH   4  17
TORSDOF 5
ENDMDL
MODEL 13
REMARK VINA RESULT:      -4.4     12.579     14.876
REMARK  5 active torsions:
REMARK  status: ('A' for Active; 'I' for Inactive)
REMARK    1  A    between atoms: C2_4  and  N2_20 
REMARK    2  A    between atoms: C3_6  and  O3_22 
REMARK    3  A    between atoms: C4_8  and  O4_24 
REMARK    4  A    between atoms: C5_10  and  C6_12 
REMARK    5  A    between atoms: C6_12  and  O6_27 
REMARK       I    between atoms: C7_15  and  N2_20 
ROOT
HETATM    1  C1  NAG A 700      48.963 176.542 166.139  1.00237.24     0.196 C 
HETATM    2  C2  NAG A 700      48.987 176.395 164.619  1.00284.04     0.139 C 
HETATM    3  C3  NAG A 700      50.291 176.958 164.055  1.00318.04     0.174 C 
HETATM    4  C4  NAG A 700      50.505 178.389 164.532  1.00298.92     0.180 C 
HETATM    5  C5  NAG A 700      50.419 178.455 166.054  1.00297.28     0.176 C 
HETATM    6  O5  NAG A 700      49.164 177.912 166.494  1.00257.71    -0.379 OA
ENDROOT
BRANCH   2   7
HETATM    7  N2  NAG A 700      48.820 175.006 164.225  1.00326.77    -0.352 N 
HETATM    8  C7  NAG A 700      47.773 174.568 163.518  1.00328.74     0.214 C 
HETATM    9  C8  NAG A 700      47.764 173.105 163.196  1.00328.56     0.117 C 
HETATM   10  O7  NAG A 700      46.873 175.319 163.157  1.00327.57    -0.274 OA
HETATM   11  H2  NAG A 700      49.535 174.333 164.500  1.00  0.00     0.163 HD
ENDBRANCH   2   7
BRANCH   3  12
HETATM   12  O3  NAG A 700      50.249 176.922 162.633  1.00322.86    -0.391 OA
HETATM   13  H3  NAG A 700      49.901 177.743 162.304  1.00  0.00     0.210 HD
ENDBRANCH   3  12
BRANCH   5  14
HETATM   14  C6  NAG A 700      50.493 179.866 166.589  1.00300.81     0.198 C 
BRANCH  14  15
HETATM   15  O6  NAG A 700      51.809 180.192 167.017  1.00307.66    -0.398 OA
HETATM   16  H6  NAG A 700      52.454 179.610 166.633  1.00  0.00     0.209 HD
ENDBRANCH  14  15
ENDBRANCH   5  14
BRANCH   4  17
HETATM   17  O4  NAG A 700      51.785 178.854 164.117  1.00303.14    -0.390 OA
HETATM   18  H4  NAG A 700      51.849 179.792 164.252  1.00  0.00     0.210 HD
ENDBRANCH   4  17
TORSDOF 5
ENDMDL
MODEL 14
REMARK VINA RESULT:      -4.3     13.493     14.561
REMARK  5 active torsions:
REMARK  status: ('A' for Active; 'I' for Inactive)
REMARK    1  A    between atoms: C2_4  and  N2_20 
REMARK    2  A    between atoms: C3_6  and  O3_22 
REMARK    3  A    between atoms: C4_8  and  O4_24 
REMARK    4  A    between atoms: C5_10  and  C6_12 
REMARK    5  A    between atoms: C6_12  and  O6_27 
REMARK       I    between atoms: C7_15  and  N2_20 
ROOT
HETATM    1  C1  NAG A 700      59.088 188.146 174.365  1.00237.24     0.196 C 
HETATM    2  C2  NAG A 700      58.214 189.398 174.319  1.00284.04     0.139 C 
HETATM    3  C3  NAG A 700      58.278 190.036 172.932  1.00318.04     0.174 C 
HETATM    4  C4  NAG A 700      59.725 190.289 172.527  1.00298.92     0.180 C 
HETATM    5  C5  NAG A 700      60.538 189.003 172.647  1.00297.28     0.176 C 
HETATM    6  O5  NAG A 700      60.424 188.478 173.979  1.00257.71    -0.379 OA
ENDROOT
BRANCH   2   7
HETATM    7  N2  NAG A 700      56.838 189.088 174.673  1.00326.77    -0.352 N 
HETATM    8  C7  NAG A 700      56.081 189.889 175.430  1.00328.74     0.214 C 
HETATM    9  C8  NAG A 700      54.684 189.416 175.692  1.00328.56     0.117 C 
HETATM   10  O7  NAG A 700      56.506 190.947 175.884  1.00327.57    -0.274 OA
HETATM   11  H2  NAG A 700      56.431 188.219 174.327  1.00  0.00     0.163 HD
ENDBRANCH   2   7
BRANCH   3  12
HETATM   12  O3  NAG A 700      57.555 191.261 172.937  1.00322.86    -0.391 OA
HETATM   13  H3  NAG A 700      56.639 191.090 173.124  1.00  0.00     0.210 HD
ENDBRANCH   3  12
BRANCH   5  14
HETATM   14  C6  NAG A 700      62.012 189.209 172.386  1.00300.81     0.198 C 
BRANCH  14  15
HETATM   15  O6  NAG A 700      62.245 189.685 171.067  1.00307.66    -0.398 OA
HETATM   16  H6  NAG A 700      62.836 190.429 171.066  1.00  0.00     0.209 HD
ENDBRANCH  14  15
ENDBRANCH   5  14
BRANCH   4  17
HETATM   17  O4  NAG A 700      59.781 190.752 171.182  1.00303.14    -0.390 OA
HETATM   18  H4  NAG A 700      60.685 190.863 170.914  1.00  0.00     0.210 HD
ENDBRANCH   4  17
TORSDOF 5
ENDMDL
MODEL 15
REMARK VINA RESULT:      -4.3     15.192     15.602
REMARK  5 active torsions:
REMARK  status: ('A' for Active; 'I' for Inactive)
REMARK    1  A    between atoms: C2_4  and  N2_20 
REMARK    2  A    between atoms: C3_6  and  O3_22 
REMARK    3  A    between atoms: C4_8  and  O4_24 
REMARK    4  A    between atoms: C5_10  and  C6_12 
REMARK    5  A    between atoms: C6_12  and  O6_27 
REMARK       I    between atoms: C7_15  and  N2_20 
ROOT
HETATM    1  C1  NAG A 700      55.813 189.882 175.534  1.00237.24     0.196 C 
HETATM    2  C2  NAG A 700      56.369 188.552 175.029  1.00284.04     0.139 C 
HETATM    3  C3  NAG A 700      55.253 187.713 174.410  1.00318.04     0.174 C 
HETATM    4  C4  NAG A 700      54.096 187.557 175.389  1.00298.92     0.180 C 
HETATM    5  C5  NAG A 700      53.633 188.925 175.879  1.00297.28     0.176 C 
HETATM    6  O5  NAG A 700      54.741 189.639 176.449  1.00257.71    -0.379 OA
ENDROOT
BRANCH   2   7
HETATM    7  N2  NAG A 700      57.440 188.764 174.068  1.00326.77    -0.352 N 
HETATM    8  C7  NAG A 700      58.735 188.668 174.385  1.00328.74     0.214 C 
HETATM    9  C8  NAG A 700      59.704 188.914 173.269  1.00328.56     0.117 C 
HETATM   10  O7  NAG A 700      59.107 188.397 175.522  1.00327.57    -0.274 OA
HETATM   11  H2  NAG A 700      57.191 188.997 173.107  1.00  0.00     0.163 HD
ENDBRANCH   2   7
BRANCH   3  12
HETATM   12  O3  NAG A 700      55.761 186.434 174.052  1.00322.86    -0.391 OA
HETATM   13  H3  NAG A 700      55.206 185.756 174.420  1.00  0.00     0.210 HD
ENDBRANCH   3  12
BRANCH   5  14
HETATM   14  C6  NAG A 700      52.573 188.840 176.953  1.00300.81     0.198 C 
BRANCH  14  15
HETATM   15  O6  NAG A 700      51.270 188.757 176.393  1.00307.66    -0.398 OA
HETATM   16  H6  NAG A 700      51.291 188.840 175.447  1.00  0.00     0.209 HD
ENDBRANCH  14  15
ENDBRANCH   5  14
BRANCH   4  17
HETATM   17  O4  NAG A 700      53.007 186.895 174.755  1.00303.14    -0.390 OA
HETATM   18  H4  NAG A 700      52.837 187.288 173.907  1.00  0.00     0.210 HD
ENDBRANCH   4  17
TORSDOF 5
ENDMDL
MODEL 16
REMARK VINA RESULT:      -4.3     12.821     13.420
REMARK  5 active torsions:
REMARK  status: ('A' for Active; 'I' for Inactive)
REMARK    1  A    between atoms: C2_4  and  N2_20 
REMARK    2  A    between atoms: C3_6  and  O3_22 
REMARK    3  A    between atoms: C4_8  and  O4_24 
REMARK    4  A    between atoms: C5_10  and  C6_12 
REMARK    5  A    between atoms: C6_12  and  O6_27 
REMARK       I    between atoms: C7_15  and  N2_20 
ROOT
HETATM    1  C1  NAG A 700      52.427 176.710 166.668  1.00237.24     0.196 C 
HETATM    2  C2  NAG A 700      53.855 176.650 167.206  1.00284.04     0.139 C 
HETATM    3  C3  NAG A 700      53.920 177.264 168.603  1.00318.04     0.174 C 
HETATM    4  C4  NAG A 700      53.330 178.669 168.596  1.00298.92     0.180 C 
HETATM    5  C5  NAG A 700      51.925 178.648 168.002  1.00297.28     0.176 C 
HETATM    6  O5  NAG A 700      51.960 178.061 166.692  1.00257.71    -0.379 OA
ENDROOT
BRANCH   2   7
HETATM    7  N2  NAG A 700      54.349 175.283 167.228  1.00326.77    -0.352 N 
HETATM    8  C7  NAG A 700      55.426 174.883 166.543  1.00328.74     0.214 C 
HETATM    9  C8  NAG A 700      55.796 173.439 166.685  1.00328.56     0.117 C 
HETATM   10  O7  NAG A 700      56.071 175.655 165.840  1.00327.57    -0.274 OA
HETATM   11  H2  NAG A 700      53.850 174.595 167.792  1.00  0.00     0.163 HD
ENDBRANCH   2   7
BRANCH   3  12
HETATM   12  O3  NAG A 700      55.273 177.309 169.042  1.00322.86    -0.391 OA
HETATM   13  H3  NAG A 700      55.414 178.093 169.559  1.00  0.00     0.210 HD
ENDBRANCH   3  12
BRANCH   5  14
HETATM   14  C6  NAG A 700      51.329 180.027 167.844  1.00300.81     0.198 C 
BRANCH  14  15
HETATM   15  O6  NAG A 700      50.780 180.500 169.067  1.00307.66    -0.398 OA
HETATM   16  H6  NAG A 700      50.881 181.440 169.153  1.00  0.00     0.209 HD
ENDBRANCH  14  15
ENDBRANCH   5  14
BRANCH   4  17
HETATM   17  O4  NAG A 700      53.267 179.178 169.924  1.00303.14    -0.390 OA
HETATM   18  H4  NAG A 700      53.086 180.110 169.907  1.00  0.00     0.210 HD
ENDBRANCH   4  17
TORSDOF 5
ENDMDL
MODEL 17
REMARK VINA RESULT:      -4.3      3.436      5.337
REMARK  5 active torsions:
REMARK  status: ('A' for Active; 'I' for Inactive)
REMARK    1  A    between atoms: C2_4  and  N2_20 
REMARK    2  A    between atoms: C3_6  and  O3_22 
REMARK    3  A    between atoms: C4_8  and  O4_24 
REMARK    4  A    between atoms: C5_10  and  C6_12 
REMARK    5  A    between atoms: C6_12  and  O6_27 
REMARK       I    between atoms: C7_15  and  N2_20 
ROOT
HETATM    1  C1  NAG A 700      57.300 182.803 161.217  1.00237.24     0.196 C 
HETATM    2  C2  NAG A 700      58.177 183.802 160.465  1.00284.04     0.139 C 
HETATM    3  C3  NAG A 700      58.977 183.088 159.377  1.00318.04     0.174 C 
HETATM    4  C4  NAG A 700      59.754 181.917 159.966  1.00298.92     0.180 C 
HETATM    5  C5  NAG A 700      58.814 180.996 160.738  1.00297.28     0.176 C 
HETATM    6  O5  NAG A 700      58.110 181.748 161.739  1.00257.71    -0.379 OA
ENDROOT
BRANCH   2   7
HETATM    7  N2  NAG A 700      57.378 184.872 159.891  1.00326.77    -0.352 N 
HETATM    8  C7  NAG A 700      57.486 186.150 160.271  1.00328.74     0.214 C 
HETATM    9  C8  NAG A 700      56.588 187.121 159.569  1.00328.56     0.117 C 
HETATM   10  O7  NAG A 700      58.274 186.504 161.142  1.00327.57    -0.274 OA
HETATM   11  H2  NAG A 700      56.703 184.637 159.164  1.00  0.00     0.163 HD
ENDBRANCH   2   7
BRANCH   3  12
HETATM   12  O3  NAG A 700      59.874 184.007 158.765  1.00322.86    -0.391 OA
HETATM   13  H3  NAG A 700      60.669 183.553 158.507  1.00  0.00     0.210 HD
ENDBRANCH   3  12
BRANCH   5  14
HETATM   14  C6  NAG A 700      59.537 179.883 161.459  1.00300.81     0.198 C 
BRANCH  14  15
HETATM   15  O6  NAG A 700      59.114 179.777 162.812  1.00307.66    -0.398 OA
HETATM   16  H6  NAG A 700      58.169 179.841 162.887  1.00  0.00     0.209 HD
ENDBRANCH  14  15
ENDBRANCH   5  14
BRANCH   4  17
HETATM   17  O4  NAG A 700      60.382 181.176 158.925  1.00303.14    -0.390 OA
HETATM   18  H4  NAG A 700      60.785 181.769 158.302  1.00  0.00     0.210 HD
ENDBRANCH   4  17
TORSDOF 5
ENDMDL
MODEL 18
REMARK VINA RESULT:      -4.1     11.741     14.871
REMARK  5 active torsions:
REMARK  status: ('A' for Active; 'I' for Inactive)
REMARK    1  A    between atoms: C2_4  and  N2_20 
REMARK    2  A    between atoms: C3_6  and  O3_22 
REMARK    3  A    between atoms: C4_8  and  O4_24 
REMARK    4  A    between atoms: C5_10  and  C6_12 
REMARK    5  A    between atoms: C6_12  and  O6_27 
REMARK       I    between atoms: C7_15  and  N2_20 
ROOT
HETATM    1  C1  NAG A 700      50.677 176.013 164.938  1.00237.24     0.196 C 
HETATM    2  C2  NAG A 700      49.232 176.058 164.446  1.00284.04     0.139 C 
HETATM    3  C3  NAG A 700      49.125 176.933 163.199  1.00318.04     0.174 C 
HETATM    4  C4  NAG A 700      49.723 178.310 163.459  1.00298.92     0.180 C 
HETATM    5  C5  NAG A 700      51.146 178.174 163.991  1.00297.28     0.176 C 
HETATM    6  O5  NAG A 700      51.151 177.343 165.162  1.00257.71    -0.379 OA
ENDROOT
BRANCH   2   7
HETATM    7  N2  NAG A 700      48.730 174.721 164.175  1.00326.77    -0.352 N 
HETATM    8  C7  NAG A 700      47.474 174.344 164.438  1.00328.74     0.214 C 
HETATM    9  C8  NAG A 700      47.126 172.930 164.089  1.00328.56     0.117 C 
HETATM   10  O7  NAG A 700      46.657 175.112 164.935  1.00327.57    -0.274 OA
HETATM   11  H2  NAG A 700      49.366 174.037 163.764  1.00  0.00     0.163 HD
ENDBRANCH   2   7
BRANCH   3  12
HETATM   12  O3  NAG A 700      47.759 177.061 162.822  1.00322.86    -0.391 OA
HETATM   13  H3  NAG A 700      47.203 176.857 163.565  1.00  0.00     0.210 HD
ENDBRANCH   3  12
BRANCH   5  14
HETATM   14  C6  NAG A 700      51.755 179.497 164.395  1.00300.81     0.198 C 
BRANCH  14  15
HETATM   15  O6  NAG A 700      50.832 180.566 164.232  1.00307.66    -0.398 OA
HETATM   16  H6  NAG A 700      50.225 180.616 164.961  1.00  0.00     0.209 HD
ENDBRANCH  14  15
ENDBRANCH   5  14
BRANCH   4  17
HETATM   17  O4  NAG A 700      49.745 179.068 162.254  1.00303.14    -0.390 OA
HETATM   18  H4  NAG A 700      49.585 179.984 162.444  1.00  0.00     0.210 HD
ENDBRANCH   4  17
TORSDOF 5
ENDMDL
MODEL 19
REMARK VINA RESULT:      -4.1      6.722      7.020
REMARK  5 active torsions:
REMARK  status: ('A' for Active; 'I' for Inactive)
REMARK    1  A    between atoms: C2_4  and  N2_20 
REMARK    2  A    between atoms: C3_6  and  O3_22 
REMARK    3  A    between atoms: C4_8  and  O4_24 
REMARK    4  A    between atoms: C5_10  and  C6_12 
REMARK    5  A    between atoms: C6_12  and  O6_27 
REMARK       I    between atoms: C7_15  and  N2_20 
ROOT
HETATM    1  C1  NAG A 700      59.416 179.450 159.543  1.00237.24     0.196 C 
HETATM    2  C2  NAG A 700      59.760 179.817 160.986  1.00284.04     0.139 C 
HETATM    3  C3  NAG A 700      58.590 179.483 161.909  1.00318.04     0.174 C 
HETATM    4  C4  NAG A 700      57.309 180.135 161.405  1.00298.92     0.180 C 
HETATM    5  C5  NAG A 700      57.064 179.758 159.947  1.00297.28     0.176 C 
HETATM    6  O5  NAG A 700      58.208 180.110 159.155  1.00257.71    -0.379 OA
ENDROOT
BRANCH   2   7
HETATM    7  N2  NAG A 700      60.966 179.134 161.425  1.00326.77    -0.352 N 
HETATM    8  C7  NAG A 700      62.189 179.662 161.308  1.00328.74     0.214 C 
HETATM    9  C8  NAG A 700      63.319 178.821 161.818  1.00328.56     0.117 C 
HETATM   10  O7  NAG A 700      62.373 180.770 160.813  1.00327.57    -0.274 OA
HETATM   11  H2  NAG A 700      60.876 178.207 161.841  1.00  0.00     0.163 HD
ENDBRANCH   2   7
BRANCH   3  12
HETATM   12  O3  NAG A 700      58.879 179.936 163.227  1.00322.86    -0.391 OA
HETATM   13  H3  NAG A 700      58.078 180.228 163.646  1.00  0.00     0.210 HD
ENDBRANCH   3  12
BRANCH   5  14
HETATM   14  C6  NAG A 700      55.880 180.474 159.343  1.00300.81     0.198 C 
BRANCH  14  15
HETATM   15  O6  NAG A 700      54.667 179.775 159.591  1.00307.66    -0.398 OA
HETATM   16  H6  NAG A 700      54.604 179.498 160.497  1.00  0.00     0.209 HD
ENDBRANCH  14  15
ENDBRANCH   5  14
BRANCH   4  17
HETATM   17  O4  NAG A 700      56.202 179.706 162.191  1.00303.14    -0.390 OA
HETATM   18  H4  NAG A 700      55.790 178.952 161.786  1.00  0.00     0.210 HD
ENDBRANCH   4  17
TORSDOF 5
ENDMDL
MODEL 20
REMARK VINA RESULT:      -4.0     12.274     13.099
REMARK  5 active torsions:
REMARK  status: ('A' for Active; 'I' for Inactive)
REMARK    1  A    between atoms: C2_4  and  N2_20 
REMARK    2  A    between atoms: C3_6  and  O3_22 
REMARK    3  A    between atoms: C4_8  and  O4_24 
REMARK    4  A    between atoms: C5_10  and  C6_12 
REMARK    5  A    between atoms: C6_12  and  O6_27 
REMARK       I    between atoms: C7_15  and  N2_20 
ROOT
HETATM    1  C1  NAG A 700      63.286 181.356 172.431  1.00237.24     0.196 C 
HETATM    2  C2  NAG A 700      62.399 182.169 171.491  1.00284.04     0.139 C 
HETATM    3  C3  NAG A 700      60.984 182.272 172.057  1.00318.04     0.174 C 
HETATM    4  C4  NAG A 700      60.431 180.887 172.368  1.00298.92     0.180 C 
HETATM    5  C5  NAG A 700      61.397 180.126 173.271  1.00297.28     0.176 C 
HETATM    6  O5  NAG A 700      62.696 180.074 172.661  1.00257.71    -0.379 OA
ENDROOT
BRANCH   2   7
HETATM    7  N2  NAG A 700      62.954 183.494 171.264  1.00326.77    -0.352 N 
HETATM    8  C7  NAG A 700      63.231 183.971 170.046  1.00328.74     0.214 C 
HETATM    9  C8  NAG A 700      63.794 185.359 169.996  1.00328.56     0.117 C 
HETATM   10  O7  NAG A 700      63.035 183.312 169.030  1.00327.57    -0.274 OA
HETATM   11  H2  NAG A 700      63.142 184.087 172.072  1.00  0.00     0.163 HD
ENDBRANCH   2   7
BRANCH   3  12
HETATM   12  O3  NAG A 700      60.142 182.930 171.117  1.00322.86    -0.391 OA
HETATM   13  H3  NAG A 700      59.232 182.789 171.352  1.00  0.00     0.210 HD
ENDBRANCH   3  12
BRANCH   5  14
HETATM   14  C6  NAG A 700      60.975 178.696 173.516  1.00300.81     0.198 C 
BRANCH  14  15
HETATM   15  O6  NAG A 700      60.007 178.270 172.566  1.00307.66    -0.398 OA
HETATM   16  H6  NAG A 700      60.048 177.331 172.424  1.00  0.00     0.209 HD
ENDBRANCH  14  15
ENDBRANCH   5  14
BRANCH   4  17
HETATM   17  O4  NAG A 700      59.172 181.001 173.023  1.00303.14    -0.390 OA
HETATM   18  H4  NAG A 700      58.481 181.113 172.381  1.00  0.00     0.210 HD
ENDBRANCH   4  17
TORSDOF 5
ENDMDL
