REMARK  6 active torsions:
REMARK  status: ('A' for Active; 'I' for Inactive)
REMARK    1  A    between atoms: C3_5  and  C7_14 
REMARK    2  A    between atoms: C5_8  and  S1_11 
REMARK    3  A    between atoms: C7_14  and  O3_17 
REMARK    4  A    between atoms: O3_17  and  C8_18 
REMARK    5  A    between atoms: C14_27  and  N4_34 
REMARK    6  A    between atoms: C15_30  and  N3_33 
ROOT
HETATM    1  C1  31G B 401      39.968  41.495  14.476  1.00 81.96     0.002 A 
HETATM    2  C2  31G B 401      38.899  40.663  14.758  1.00 79.63     0.009 A 
HETATM    3  C3  31G B 401      38.313  39.884  13.770  1.00 77.68    -0.033 A 
HETATM    4  C4  31G B 401      38.886  39.875  12.500  1.00 86.10     0.033 A 
HETATM    5  C5  31G B 401      39.976  40.690  12.224  1.00 93.12     0.075 A 
HETATM    6  C6  31G B 401      40.512  41.522  13.204  1.00 87.75     0.024 A 
ENDROOT
BRANCH   3   7
HETATM    7  C7  31G B 401      37.030  39.160  14.087  1.00 65.67     0.214 C 
BRANCH   7   8
HETATM    8  O3  31G B 401      36.293  38.440  13.074  1.00 53.78    -0.346 OA
BRANCH   8   9
HETATM    9  C8  31G B 401      35.496  39.024  12.118  1.00 47.27     0.085 C 
HETATM   10  C9  31G B 401      35.780  40.096  11.292  1.00 42.14     0.038 C 
HETATM   11  C10 31G B 401      34.860  40.503  10.324  1.00 33.99     0.005 C 
HETATM   12  C11 31G B 401      33.635  39.921  10.225  1.00 33.71     0.031 C 
HETATM   13  C12 31G B 401      33.240  38.937  11.162  1.00 39.37     0.066 A 
HETATM   14  C13 31G B 401      34.184  38.450  12.130  1.00 44.07     0.069 A 
HETATM   15  N2  31G B 401      31.907  38.612  11.205  1.00 39.79    -0.191 N 
HETATM   16  C14 31G B 401      33.555  37.565  13.150  1.00 43.60     0.130 A 
HETATM   17  N1  31G B 401      32.257  37.265  13.174  1.00 41.12    -0.176 N 
HETATM   18  C15 31G B 401      31.475  37.816  12.218  1.00 40.11     0.677 A 
HETATM   19  H1  31G B 401      31.869  36.645  13.885  1.00  0.00     0.186 HD
HETATM   20  H2  31G B 401      31.259  38.958  10.497  1.00  0.00     0.184 HD
BRANCH  16  21
HETATM   21  N4  31G B 401      34.296  37.006  14.122  1.00 45.29    -0.384 N 
HETATM   22  H12 31G B 401      35.307  37.087  14.142  0.00 45.23     0.157 HD
HETATM   23  H13 31G B 401      33.859  36.555  14.918  0.00 45.23     0.157 HD
ENDBRANCH  16  21
BRANCH  18  24
HETATM   24  N3  31G B 401      30.160  37.592  12.319  1.00 39.21    -0.234 N 
HETATM   25  H11 31G B 401      29.500  38.054  11.703  0.00 39.23     0.174 HD
HETATM   26  H10 31G B 401      29.777  37.004  13.053  0.00 39.23     0.174 HD
ENDBRANCH  18  24
ENDBRANCH   8   9
ENDBRANCH   7   8
ENDBRANCH   3   7
BRANCH   5  27
HETATM   27  S1  31G B 401      40.655  40.673  10.608  1.00101.94     0.286 S 
HETATM   28  O1  31G B 401      41.930  41.277  10.639  1.00104.04    -0.206 OA
HETATM   29  O2  31G B 401      40.510  39.419   9.974  1.00104.12    -0.206 OA
ENDBRANCH   5  27
TORSDOF 6
