MODEL 1
REMARK VINA RESULT:      -7.8      0.000      0.000
REMARK  6 active torsions:
REMARK  status: ('A' for Active; 'I' for Inactive)
REMARK    1  A    between atoms: C3_5  and  C7_14 
REMARK    2  A    between atoms: C5_8  and  S1_11 
REMARK    3  A    between atoms: C7_14  and  O3_17 
REMARK    4  A    between atoms: O3_17  and  C8_18 
REMARK    5  A    between atoms: C14_27  and  N4_34 
REMARK    6  A    between atoms: C15_30  and  N3_33 
ROOT
HETATM    1  C1  31G B 401       0.187  16.242  37.371  1.00 81.96     0.002 A 
HETATM    2  C2  31G B 401      -1.001  16.649  36.790  1.00 79.63     0.009 A 
HETATM    3  C3  31G B 401      -1.068  16.979  35.443  1.00 77.68    -0.033 A 
HETATM    4  C4  31G B 401       0.066  16.796  34.655  1.00 86.10     0.033 A 
HETATM    5  C5  31G B 401       1.252  16.362  35.233  1.00 93.12     0.075 A 
HETATM    6  C6  31G B 401       1.326  16.102  36.600  1.00 87.75     0.024 A 
ENDROOT
BRANCH   3   7
HETATM    7  C7  31G B 401      -2.330  17.610  34.916  1.00 65.67     0.214 C 
BRANCH   7   8
HETATM    8  O3  31G B 401      -3.455  16.813  34.482  1.00 53.78    -0.346 OA
BRANCH   8   9
HETATM    9  C8  31G B 401      -4.601  16.607  35.214  1.00 47.27     0.085 C 
HETATM   10  C9  31G B 401      -4.726  16.218  36.535  1.00 42.14     0.038 C 
HETATM   11  C10 31G B 401      -5.987  16.132  37.128  1.00 33.99     0.005 C 
HETATM   12  C11 31G B 401      -7.121  16.339  36.408  1.00 33.71     0.031 C 
HETATM   13  C12 31G B 401      -7.044  16.571  35.014  1.00 39.37     0.066 A 
HETATM   14  C13 31G B 401      -5.762  16.730  34.384  1.00 44.07     0.069 A 
HETATM   15  N2  31G B 401      -8.210  16.468  34.296  1.00 39.79    -0.191 N 
HETATM   16  C14 31G B 401      -5.855  16.777  32.898  1.00 43.60     0.130 A 
HETATM   17  N1  31G B 401      -6.998  16.671  32.222  1.00 41.12    -0.176 N 
HETATM   18  C15 31G B 401      -8.130  16.497  32.940  1.00 40.11     0.677 A 
HETATM   19  H1  31G B 401      -7.017  16.720  31.203  1.00  0.00     0.186 HD
HETATM   20  H2  31G B 401      -9.110  16.372  34.767  1.00  0.00     0.184 HD
BRANCH  16  21
HETATM   21  N4  31G B 401      -4.751  16.939  32.148  1.00 45.29    -0.384 N 
HETATM   22  H12 31G B 401      -3.951  17.470  32.476  0.00 45.23     0.157 HD
HETATM   23  H13 31G B 401      -4.649  16.461  31.260  0.00 45.23     0.157 HD
ENDBRANCH  16  21
BRANCH  18  24
HETATM   24  N3  31G B 401      -9.253  16.286  32.244  1.00 39.21    -0.234 N 
HETATM   25  H11 31G B 401      -9.559  16.939  31.531  0.00 39.23     0.174 HD
HETATM   26  H10 31G B 401      -9.865  15.502  32.449  0.00 39.23     0.174 HD
ENDBRANCH  18  24
ENDBRANCH   8   9
ENDBRANCH   7   8
ENDBRANCH   3   7
BRANCH   5  27
HETATM   27  S1  31G B 401       2.666  16.167  34.216  1.00101.94     0.286 S 
HETATM   28  O1  31G B 401       2.767  17.279  33.352  1.00104.04    -0.206 OA
HETATM   29  O2  31G B 401       3.806  15.766  34.946  1.00104.12    -0.206 OA
ENDBRANCH   5  27
TORSDOF 6
ENDMDL
MODEL 2
REMARK VINA RESULT:      -7.7      4.797      8.220
REMARK  6 active torsions:
REMARK  status: ('A' for Active; 'I' for Inactive)
REMARK    1  A    between atoms: C3_5  and  C7_14 
REMARK    2  A    between atoms: C5_8  and  S1_11 
REMARK    3  A    between atoms: C7_14  and  O3_17 
REMARK    4  A    between atoms: O3_17  and  C8_18 
REMARK    5  A    between atoms: C14_27  and  N4_34 
REMARK    6  A    between atoms: C15_30  and  N3_33 
ROOT
HETATM    1  C1  31G B 401      -4.523  16.023  32.347  1.00 81.96     0.002 A 
HETATM    2  C2  31G B 401      -3.219  16.449  32.523  1.00 79.63     0.009 A 
HETATM    3  C3  31G B 401      -2.821  17.086  33.690  1.00 77.68    -0.033 A 
HETATM    4  C4  31G B 401      -3.738  17.202  34.733  1.00 86.10     0.033 A 
HETATM    5  C5  31G B 401      -5.041  16.750  34.566  1.00 93.12     0.075 A 
HETATM    6  C6  31G B 401      -5.449  16.177  33.364  1.00 87.75     0.024 A 
ENDROOT
BRANCH   3   7
HETATM    7  C7  31G B 401      -1.450  17.709  33.742  1.00 65.67     0.214 C 
BRANCH   7   8
HETATM    8  O3  31G B 401      -0.270  16.926  34.034  1.00 53.78    -0.346 OA
BRANCH   8   9
HETATM    9  C8  31G B 401       0.138  16.560  35.295  1.00 47.27     0.085 C 
HETATM   10  C9  31G B 401      -0.509  16.749  36.502  1.00 42.14     0.038 C 
HETATM   11  C10 31G B 401       0.036  16.237  37.681  1.00 33.99     0.005 C 
HETATM   12  C11 31G B 401       1.249  15.623  37.690  1.00 33.71     0.031 C 
HETATM   13  C12 31G B 401       2.021  15.562  36.506  1.00 39.37     0.066 A 
HETATM   14  C13 31G B 401       1.464  16.021  35.263  1.00 44.07     0.069 A 
HETATM   15  N2  31G B 401       3.343  15.215  36.637  1.00 39.79    -0.191 N 
HETATM   16  C14 31G B 401       2.469  16.061  34.164  1.00 43.60     0.130 A 
HETATM   17  N1  31G B 401       3.748  15.721  34.314  1.00 41.12    -0.176 N 
HETATM   18  C15 31G B 401       4.147  15.334  35.548  1.00 40.11     0.677 A 
HETATM   19  H1  31G B 401       4.401  15.753  33.531  1.00  0.00     0.186 HD
HETATM   20  H2  31G B 401       3.712  14.877  37.526  1.00  0.00     0.184 HD
BRANCH  16  21
HETATM   21  N4  31G B 401       2.115  16.449  32.927  1.00 45.29    -0.384 N 
HETATM   22  H12 31G B 401       1.830  17.401  32.722  0.00 45.23     0.157 HD
HETATM   23  H13 31G B 401       2.204  15.820  32.136  0.00 45.23     0.157 HD
ENDBRANCH  16  21
BRANCH  18  24
HETATM   24  N3  31G B 401       5.454  15.100  35.707  1.00 39.21    -0.234 N 
HETATM   25  H11 31G B 401       6.134  15.849  35.632  0.00 39.23     0.174 HD
HETATM   26  H10 31G B 401       5.812  14.160  35.846  0.00 39.23     0.174 HD
ENDBRANCH  18  24
ENDBRANCH   8   9
ENDBRANCH   7   8
ENDBRANCH   3   7
BRANCH   5  27
HETATM   27  S1  31G B 401      -6.175  16.937  35.889  1.00101.94     0.286 S 
HETATM   28  O1  31G B 401      -7.089  17.964  35.570  1.00104.04    -0.206 OA
HETATM   29  O2  31G B 401      -6.675  15.699  36.350  1.00104.12    -0.206 OA
ENDBRANCH   5  27
TORSDOF 6
ENDMDL
MODEL 3
REMARK VINA RESULT:      -7.5      4.957      8.791
REMARK  6 active torsions:
REMARK  status: ('A' for Active; 'I' for Inactive)
REMARK    1  A    between atoms: C3_5  and  C7_14 
REMARK    2  A    between atoms: C5_8  and  S1_11 
REMARK    3  A    between atoms: C7_14  and  O3_17 
REMARK    4  A    between atoms: O3_17  and  C8_18 
REMARK    5  A    between atoms: C14_27  and  N4_34 
REMARK    6  A    between atoms: C15_30  and  N3_33 
ROOT
HETATM    1  C1  31G B 401      -3.522  16.037  31.671  1.00 81.96     0.002 A 
HETATM    2  C2  31G B 401      -2.347  16.766  31.642  1.00 79.63     0.009 A 
HETATM    3  C3  31G B 401      -1.937  17.515  32.736  1.00 77.68    -0.033 A 
HETATM    4  C4  31G B 401      -2.680  17.440  33.912  1.00 86.10     0.033 A 
HETATM    5  C5  31G B 401      -3.846  16.686  33.950  1.00 93.12     0.075 A 
HETATM    6  C6  31G B 401      -4.287  15.996  32.823  1.00 87.75     0.024 A 
ENDROOT
BRANCH   3   7
HETATM    7  C7  31G B 401      -0.764  18.447  32.575  1.00 65.67     0.214 C 
BRANCH   7   8
HETATM    8  O3  31G B 401       0.525  18.156  33.159  1.00 53.78    -0.346 OA
BRANCH   8   9
HETATM    9  C8  31G B 401       1.563  17.538  32.503  1.00 47.27     0.085 C 
HETATM   10  C9  31G B 401       1.678  17.233  31.159  1.00 42.14     0.038 C 
HETATM   11  C10 31G B 401       2.852  16.664  30.663  1.00 33.99     0.005 C 
HETATM   12  C11 31G B 401       3.873  16.315  31.492  1.00 33.71     0.031 C 
HETATM   13  C12 31G B 401       3.727  16.453  32.892  1.00 39.37     0.066 A 
HETATM   14  C13 31G B 401       2.559  17.093  33.431  1.00 44.07     0.069 A 
HETATM   15  N2  31G B 401       4.646  15.810  33.684  1.00 39.79    -0.191 N 
HETATM   16  C14 31G B 401       2.478  16.985  34.915  1.00 43.60     0.130 A 
HETATM   17  N1  31G B 401       3.382  16.353  35.664  1.00 41.12    -0.176 N 
HETATM   18  C15 31G B 401       4.419  15.769  35.023  1.00 40.11     0.677 A 
HETATM   19  H1  31G B 401       3.294  16.313  36.679  1.00  0.00     0.186 HD
HETATM   20  H2  31G B 401       5.476  15.376  33.279  1.00  0.00     0.184 HD
BRANCH  16  21
HETATM   21  N4  31G B 401       1.458  17.544  35.588  1.00 45.29    -0.384 N 
HETATM   22  H12 31G B 401       0.589  17.048  35.758  0.00 45.23     0.157 HD
HETATM   23  H13 31G B 401       1.556  18.454  36.024  0.00 45.23     0.157 HD
ENDBRANCH  16  21
BRANCH  18  24
HETATM   24  N3  31G B 401       5.258  15.049  35.777  1.00 39.21    -0.234 N 
HETATM   25  H11 31G B 401       4.936  14.235  36.289  0.00 39.23     0.174 HD
HETATM   26  H10 31G B 401       6.225  15.329  35.909  0.00 39.23     0.174 HD
ENDBRANCH  18  24
ENDBRANCH   8   9
ENDBRANCH   7   8
ENDBRANCH   3   7
BRANCH   5  27
HETATM   27  S1  31G B 401      -4.771  16.635  35.438  1.00101.94     0.286 S 
HETATM   28  O1  31G B 401      -5.849  17.541  35.340  1.00104.04    -0.206 OA
HETATM   29  O2  31G B 401      -5.027  15.315  35.871  1.00104.12    -0.206 OA
ENDBRANCH   5  27
TORSDOF 6
ENDMDL
MODEL 4
REMARK VINA RESULT:      -7.5      4.736      8.164
REMARK  6 active torsions:
REMARK  status: ('A' for Active; 'I' for Inactive)
REMARK    1  A    between atoms: C3_5  and  C7_14 
REMARK    2  A    between atoms: C5_8  and  S1_11 
REMARK    3  A    between atoms: C7_14  and  O3_17 
REMARK    4  A    between atoms: O3_17  and  C8_18 
REMARK    5  A    between atoms: C14_27  and  N4_34 
REMARK    6  A    between atoms: C15_30  and  N3_33 
ROOT
HETATM    1  C1  31G B 401      -5.534  15.432  35.979  1.00 81.96     0.002 A 
HETATM    2  C2  31G B 401      -4.409  16.236  35.918  1.00 79.63     0.009 A 
HETATM    3  C3  31G B 401      -4.139  17.013  34.800  1.00 77.68    -0.033 A 
HETATM    4  C4  31G B 401      -5.079  17.050  33.771  1.00 86.10     0.033 A 
HETATM    5  C5  31G B 401      -6.221  16.264  33.845  1.00 93.12     0.075 A 
HETATM    6  C6  31G B 401      -6.447  15.433  34.940  1.00 87.75     0.024 A 
ENDROOT
BRANCH   3   7
HETATM    7  C7  31G B 401      -2.803  17.703  34.705  1.00 65.67     0.214 C 
BRANCH   7   8
HETATM    8  O3  31G B 401      -1.593  16.978  34.394  1.00 53.78    -0.346 OA
BRANCH   8   9
HETATM    9  C8  31G B 401      -1.008  16.922  33.151  1.00 47.27     0.085 C 
HETATM   10  C9  31G B 401      -1.566  16.528  31.949  1.00 42.14     0.038 C 
HETATM   11  C10 31G B 401      -0.826  16.610  30.767  1.00 33.99     0.005 C 
HETATM   12  C11 31G B 401       0.479  16.992  30.777  1.00 33.71     0.031 C 
HETATM   13  C12 31G B 401       1.136  17.238  32.005  1.00 39.37     0.066 A 
HETATM   14  C13 31G B 401       0.389  17.225  33.233  1.00 44.07     0.069 A 
HETATM   15  N2  31G B 401       2.507  17.316  31.978  1.00 39.79    -0.191 N 
HETATM   16  C14 31G B 401       1.262  17.316  34.437  1.00 43.60     0.130 A 
HETATM   17  N1  31G B 401       2.591  17.388  34.386  1.00 41.12    -0.176 N 
HETATM   18  C15 31G B 401       3.169  17.362  33.164  1.00 40.11     0.677 A 
HETATM   19  H1  31G B 401       3.151  17.460  35.236  1.00  0.00     0.186 HD
HETATM   20  H2  31G B 401       3.014  17.340  31.093  1.00  0.00     0.184 HD
BRANCH  16  21
HETATM   21  N4  31G B 401       0.728  17.335  35.670  1.00 45.29    -0.384 N 
HETATM   22  H12 31G B 401       1.077  16.744  36.417  0.00 45.23     0.157 HD
HETATM   23  H13 31G B 401       0.009  18.006  35.917  0.00 45.23     0.157 HD
ENDBRANCH  16  21
BRANCH  18  24
HETATM   24  N3  31G B 401       4.506  17.327  33.134  1.00 39.21    -0.234 N 
HETATM   25  H11 31G B 401       5.003  16.906  32.357  0.00 39.23     0.174 HD
HETATM   26  H10 31G B 401       5.062  17.661  33.915  0.00 39.23     0.174 HD
ENDBRANCH  18  24
ENDBRANCH   8   9
ENDBRANCH   7   8
ENDBRANCH   3   7
BRANCH   5  27
HETATM   27  S1  31G B 401      -7.368  16.316  32.520  1.00101.94     0.286 S 
HETATM   28  O1  31G B 401      -8.676  16.218  33.041  1.00104.04    -0.206 OA
HETATM   29  O2  31G B 401      -7.079  17.343  31.595  1.00104.12    -0.206 OA
ENDBRANCH   5  27
TORSDOF 6
ENDMDL
MODEL 5
REMARK VINA RESULT:      -7.4      3.537      4.854
REMARK  6 active torsions:
REMARK  status: ('A' for Active; 'I' for Inactive)
REMARK    1  A    between atoms: C3_5  and  C7_14 
REMARK    2  A    between atoms: C5_8  and  S1_11 
REMARK    3  A    between atoms: C7_14  and  O3_17 
REMARK    4  A    between atoms: O3_17  and  C8_18 
REMARK    5  A    between atoms: C14_27  and  N4_34 
REMARK    6  A    between atoms: C15_30  and  N3_33 
ROOT
HETATM    1  C1  31G B 401       4.155  16.464  33.175  1.00 81.96     0.002 A 
HETATM    2  C2  31G B 401       2.876  16.946  33.393  1.00 79.63     0.009 A 
HETATM    3  C3  31G B 401       2.031  17.248  32.334  1.00 77.68    -0.033 A 
HETATM    4  C4  31G B 401       2.456  16.962  31.038  1.00 86.10     0.033 A 
HETATM    5  C5  31G B 401       3.729  16.453  30.821  1.00 93.12     0.075 A 
HETATM    6  C6  31G B 401       4.596  16.220  31.886  1.00 87.75     0.024 A 
ENDROOT
BRANCH   3   7
HETATM    7  C7  31G B 401       0.735  17.961  32.625  1.00 65.67     0.214 C 
BRANCH   7   8
HETATM    8  O3  31G B 401      -0.435  17.251  33.087  1.00 53.78    -0.346 OA
BRANCH   8   9
HETATM    9  C8  31G B 401      -1.386  16.687  32.270  1.00 47.27     0.085 C 
HETATM   10  C9  31G B 401      -1.274  16.312  30.944  1.00 42.14     0.038 C 
HETATM   11  C10 31G B 401      -2.340  15.683  30.297  1.00 33.99     0.005 C 
HETATM   12  C11 31G B 401      -3.536  15.503  30.918  1.00 33.71     0.031 C 
HETATM   13  C12 31G B 401      -3.746  16.026  32.216  1.00 39.37     0.066 A 
HETATM   14  C13 31G B 401      -2.653  16.622  32.934  1.00 44.07     0.069 A 
HETATM   15  N2  31G B 401      -5.042  16.087  32.665  1.00 39.79    -0.191 N 
HETATM   16  C14 31G B 401      -3.088  17.285  34.195  1.00 43.60     0.130 A 
HETATM   17  N1  31G B 401      -4.354  17.335  34.610  1.00 41.12    -0.176 N 
HETATM   18  C15 31G B 401      -5.288  16.757  33.821  1.00 40.11     0.677 A 
HETATM   19  H1  31G B 401      -4.607  17.790  35.487  1.00  0.00     0.186 HD
HETATM   20  H2  31G B 401      -5.800  15.643  32.145  1.00  0.00     0.184 HD
BRANCH  16  21
HETATM   21  N4  31G B 401      -2.192  17.879  35.001  1.00 45.29    -0.384 N 
HETATM   22  H12 31G B 401      -1.326  17.424  35.271  0.00 45.23     0.157 HD
HETATM   23  H13 31G B 401      -2.313  18.841  35.298  0.00 45.23     0.157 HD
ENDBRANCH  16  21
BRANCH  18  24
HETATM   24  N3  31G B 401      -6.563  16.908  34.196  1.00 39.21    -0.234 N 
HETATM   25  H11 31G B 401      -6.807  17.439  35.025  0.00 39.23     0.174 HD
HETATM   26  H10 31G B 401      -7.320  16.445  33.702  0.00 39.23     0.174 HD
ENDBRANCH  18  24
ENDBRANCH   8   9
ENDBRANCH   7   8
ENDBRANCH   3   7
BRANCH   5  27
HETATM   27  S1  31G B 401       4.240  16.129  29.176  1.00101.94     0.286 S 
HETATM   28  O1  31G B 401       4.723  17.324  28.601  1.00104.04    -0.206 OA
HETATM   29  O2  31G B 401       5.023  14.958  29.074  1.00104.12    -0.206 OA
ENDBRANCH   5  27
TORSDOF 6
ENDMDL
MODEL 6
REMARK VINA RESULT:      -7.4      1.685      2.465
REMARK  6 active torsions:
REMARK  status: ('A' for Active; 'I' for Inactive)
REMARK    1  A    between atoms: C3_5  and  C7_14 
REMARK    2  A    between atoms: C5_8  and  S1_11 
REMARK    3  A    between atoms: C7_14  and  O3_17 
REMARK    4  A    between atoms: O3_17  and  C8_18 
REMARK    5  A    between atoms: C14_27  and  N4_34 
REMARK    6  A    between atoms: C15_30  and  N3_33 
ROOT
HETATM    1  C1  31G B 401      -0.237  17.151  30.692  1.00 81.96     0.002 A 
HETATM    2  C2  31G B 401      -1.264  17.451  31.569  1.00 79.63     0.009 A 
HETATM    3  C3  31G B 401      -1.038  17.553  32.935  1.00 77.68    -0.033 A 
HETATM    4  C4  31G B 401       0.269  17.446  33.405  1.00 86.10     0.033 A 
HETATM    5  C5  31G B 401       1.305  17.172  32.521  1.00 93.12     0.075 A 
HETATM    6  C6  31G B 401       1.056  17.001  31.161  1.00 87.75     0.024 A 
ENDROOT
BRANCH   3   7
HETATM    7  C7  31G B 401      -2.224  17.676  33.856  1.00 65.67     0.214 C 
BRANCH   7   8
HETATM    8  O3  31G B 401      -3.448  16.945  33.622  1.00 53.78    -0.346 OA
BRANCH   8   9
HETATM    9  C8  31G B 401      -4.402  16.681  34.576  1.00 47.27     0.085 C 
HETATM   10  C9  31G B 401      -4.226  16.252  35.879  1.00 42.14     0.038 C 
HETATM   11  C10 31G B 401      -5.325  16.109  36.728  1.00 33.99     0.005 C 
HETATM   12  C11 31G B 401      -6.594  16.298  36.279  1.00 33.71     0.031 C 
HETATM   13  C12 31G B 401      -6.828  16.570  34.910  1.00 39.37     0.066 A 
HETATM   14  C13 31G B 401      -5.718  16.788  34.023  1.00 44.07     0.069 A 
HETATM   15  N2  31G B 401      -8.119  16.448  34.458  1.00 39.79    -0.191 N 
HETATM   16  C14 31G B 401      -6.133  16.872  32.595  1.00 43.60     0.130 A 
HETATM   17  N1  31G B 401      -7.393  16.747  32.179  1.00 41.12    -0.176 N 
HETATM   18  C15 31G B 401      -8.337  16.516  33.119  1.00 40.11     0.677 A 
HETATM   19  H1  31G B 401      -7.635  16.823  31.191  1.00  0.00     0.186 HD
HETATM   20  H2  31G B 401      -8.892  16.309  35.109  1.00  0.00     0.184 HD
BRANCH  16  21
HETATM   21  N4  31G B 401      -5.224  17.091  31.630  1.00 45.29    -0.384 N 
HETATM   22  H12 31G B 401      -5.384  17.756  30.880  0.00 45.23     0.157 HD
HETATM   23  H13 31G B 401      -4.308  16.659  31.667  0.00 45.23     0.157 HD
ENDBRANCH  16  21
BRANCH  18  24
HETATM   24  N3  31G B 401      -9.578  16.287  32.676  1.00 39.21    -0.234 N 
HETATM   25  H11 31G B 401     -10.081  16.985  32.139  0.00 39.23     0.174 HD
HETATM   26  H10 31G B 401     -10.078  15.436  32.916  0.00 39.23     0.174 HD
ENDBRANCH  18  24
ENDBRANCH   8   9
ENDBRANCH   7   8
ENDBRANCH   3   7
BRANCH   5  27
HETATM   27  S1  31G B 401       2.933  17.018  33.150  1.00101.94     0.286 S 
HETATM   28  O1  31G B 401       2.955  15.998  34.124  1.00104.04    -0.206 OA
HETATM   29  O2  31G B 401       3.909  17.007  32.129  1.00104.12    -0.206 OA
ENDBRANCH   5  27
TORSDOF 6
ENDMDL
MODEL 7
REMARK VINA RESULT:      -7.4      5.842      8.709
REMARK  6 active torsions:
REMARK  status: ('A' for Active; 'I' for Inactive)
REMARK    1  A    between atoms: C3_5  and  C7_14 
REMARK    2  A    between atoms: C5_8  and  S1_11 
REMARK    3  A    between atoms: C7_14  and  O3_17 
REMARK    4  A    between atoms: O3_17  and  C8_18 
REMARK    5  A    between atoms: C14_27  and  N4_34 
REMARK    6  A    between atoms: C15_30  and  N3_33 
ROOT
HETATM    1  C1  31G B 401      -5.440  18.809  27.624  1.00 81.96     0.002 A 
HETATM    2  C2  31G B 401      -5.002  17.887  28.558  1.00 79.63     0.009 A 
HETATM    3  C3  31G B 401      -5.047  16.524  28.301  1.00 77.68    -0.033 A 
HETATM    4  C4  31G B 401      -5.448  16.097  27.037  1.00 86.10     0.033 A 
HETATM    5  C5  31G B 401      -5.861  17.024  26.089  1.00 93.12     0.075 A 
HETATM    6  C6  31G B 401      -5.881  18.385  26.382  1.00 87.75     0.024 A 
ENDROOT
BRANCH   3   7
HETATM    7  C7  31G B 401      -4.753  15.566  29.426  1.00 65.67     0.214 C 
BRANCH   7   8
HETATM    8  O3  31G B 401      -3.594  15.722  30.275  1.00 53.78    -0.346 OA
BRANCH   8   9
HETATM    9  C8  31G B 401      -3.626  16.174  31.573  1.00 47.27     0.085 C 
HETATM   10  C9  31G B 401      -4.689  16.193  32.457  1.00 42.14     0.038 C 
HETATM   11  C10 31G B 401      -4.505  16.628  33.771  1.00 33.99     0.005 C 
HETATM   12  C11 31G B 401      -3.311  17.124  34.190  1.00 33.71     0.031 C 
HETATM   13  C12 31G B 401      -2.247  17.282  33.270  1.00 39.37     0.066 A 
HETATM   14  C13 31G B 401      -2.381  16.786  31.928  1.00 44.07     0.069 A 
HETATM   15  N2  31G B 401      -1.187  18.060  33.666  1.00 39.79    -0.191 N 
HETATM   16  C14 31G B 401      -1.252  17.200  31.048  1.00 43.60     0.130 A 
HETATM   17  N1  31G B 401      -0.234  17.958  31.453  1.00 41.12    -0.176 N 
HETATM   18  C15 31G B 401      -0.248  18.381  32.738  1.00 40.11     0.677 A 
HETATM   19  H1  31G B 401       0.525  18.209  30.820  1.00  0.00     0.186 HD
HETATM   20  H2  31G B 401      -1.106  18.387  34.629  1.00  0.00     0.184 HD
BRANCH  16  21
HETATM   21  N4  31G B 401      -1.206  16.808  29.764  1.00 45.29    -0.384 N 
HETATM   22  H12 31G B 401      -0.719  17.345  29.054  0.00 45.23     0.157 HD
HETATM   23  H13 31G B 401      -1.588  15.914  29.476  0.00 45.23     0.157 HD
ENDBRANCH  16  21
BRANCH  18  24
HETATM   24  N3  31G B 401       0.723  19.228  33.099  1.00 39.21    -0.234 N 
HETATM   25  H11 31G B 401       0.822  20.133  32.654  0.00 39.23     0.174 HD
HETATM   26  H10 31G B 401       1.427  18.967  33.782  0.00 39.23     0.174 HD
ENDBRANCH  18  24
ENDBRANCH   8   9
ENDBRANCH   7   8
ENDBRANCH   3   7
BRANCH   5  27
HETATM   27  S1  31G B 401      -6.385  16.449  24.518  1.00101.94     0.286 S 
HETATM   28  O1  31G B 401      -6.044  15.085  24.391  1.00104.04    -0.206 OA
HETATM   29  O2  31G B 401      -7.701  16.855  24.204  1.00104.12    -0.206 OA
ENDBRANCH   5  27
TORSDOF 6
ENDMDL
MODEL 8
REMARK VINA RESULT:      -7.3      4.532      8.464
REMARK  6 active torsions:
REMARK  status: ('A' for Active; 'I' for Inactive)
REMARK    1  A    between atoms: C3_5  and  C7_14 
REMARK    2  A    between atoms: C5_8  and  S1_11 
REMARK    3  A    between atoms: C7_14  and  O3_17 
REMARK    4  A    between atoms: O3_17  and  C8_18 
REMARK    5  A    between atoms: C14_27  and  N4_34 
REMARK    6  A    between atoms: C15_30  and  N3_33 
ROOT
HETATM    1  C1  31G B 401      -4.112  16.250  32.288  1.00 81.96     0.002 A 
HETATM    2  C2  31G B 401      -2.828  16.441  32.765  1.00 79.63     0.009 A 
HETATM    3  C3  31G B 401      -2.600  16.935  34.042  1.00 77.68    -0.033 A 
HETATM    4  C4  31G B 401      -3.692  17.143  34.881  1.00 86.10     0.033 A 
HETATM    5  C5  31G B 401      -4.981  16.925  34.412  1.00 93.12     0.075 A 
HETATM    6  C6  31G B 401      -5.202  16.497  33.105  1.00 87.75     0.024 A 
ENDROOT
BRANCH   3   7
HETATM    7  C7  31G B 401      -1.194  17.317  34.429  1.00 65.67     0.214 C 
BRANCH   7   8
HETATM    8  O3  31G B 401      -0.105  17.268  33.480  1.00 53.78    -0.346 OA
BRANCH   8   9
HETATM    9  C8  31G B 401       1.188  16.913  33.786  1.00 47.27     0.085 C 
HETATM   10  C9  31G B 401       1.807  16.881  35.022  1.00 42.14     0.038 C 
HETATM   11  C10 31G B 401       3.119  16.418  35.141  1.00 33.99     0.005 C 
HETATM   12  C11 31G B 401       3.848  16.074  34.047  1.00 33.71     0.031 C 
HETATM   13  C12 31G B 401       3.310  16.255  32.750  1.00 39.37     0.066 A 
HETATM   14  C13 31G B 401       1.943  16.668  32.594  1.00 44.07     0.069 A 
HETATM   15  N2  31G B 401       4.184  16.186  31.694  1.00 39.79    -0.191 N 
HETATM   16  C14 31G B 401       1.599  16.991  31.181  1.00 43.60     0.130 A 
HETATM   17  N1  31G B 401       2.465  16.919  30.171  1.00 41.12    -0.176 N 
HETATM   18  C15 31G B 401       3.730  16.543  30.464  1.00 40.11     0.677 A 
HETATM   19  H1  31G B 401       2.184  17.139  29.215  1.00  0.00     0.186 HD
HETATM   20  H2  31G B 401       5.146  15.874  31.828  1.00  0.00     0.184 HD
BRANCH  16  21
HETATM   21  N4  31G B 401       0.355  17.378  30.850  1.00 45.29    -0.384 N 
HETATM   22  H12 31G B 401      -0.191  16.891  30.147  0.00 45.23     0.157 HD
HETATM   23  H13 31G B 401      -0.113  18.121  31.356  0.00 45.23     0.157 HD
ENDBRANCH  16  21
BRANCH  18  24
HETATM   24  N3  31G B 401       4.613  16.579  29.459  1.00 39.21    -0.234 N 
HETATM   25  H11 31G B 401       4.343  16.897  28.535  0.00 39.23     0.174 HD
HETATM   26  H10 31G B 401       5.560  16.231  29.572  0.00 39.23     0.174 HD
ENDBRANCH  18  24
ENDBRANCH   8   9
ENDBRANCH   7   8
ENDBRANCH   3   7
BRANCH   5  27
HETATM   27  S1  31G B 401      -6.333  17.222  35.487  1.00101.94     0.286 S 
HETATM   28  O1  31G B 401      -7.381  17.818  34.754  1.00104.04    -0.206 OA
HETATM   29  O2  31G B 401      -6.622  16.111  36.311  1.00104.12    -0.206 OA
ENDBRANCH   5  27
TORSDOF 6
ENDMDL
MODEL 9
REMARK VINA RESULT:      -7.3      4.313      7.946
REMARK  6 active torsions:
REMARK  status: ('A' for Active; 'I' for Inactive)
REMARK    1  A    between atoms: C3_5  and  C7_14 
REMARK    2  A    between atoms: C5_8  and  S1_11 
REMARK    3  A    between atoms: C7_14  and  O3_17 
REMARK    4  A    between atoms: O3_17  and  C8_18 
REMARK    5  A    between atoms: C14_27  and  N4_34 
REMARK    6  A    between atoms: C15_30  and  N3_33 
ROOT
HETATM    1  C1  31G B 401      -5.501  15.902  36.362  1.00 81.96     0.002 A 
HETATM    2  C2  31G B 401      -4.258  16.307  35.907  1.00 79.63     0.009 A 
HETATM    3  C3  31G B 401      -4.079  16.756  34.606  1.00 77.68    -0.033 A 
HETATM    4  C4  31G B 401      -5.198  16.889  33.787  1.00 86.10     0.033 A 
HETATM    5  C5  31G B 401      -6.449  16.508  34.252  1.00 93.12     0.075 A 
HETATM    6  C6  31G B 401      -6.607  15.991  35.536  1.00 87.75     0.024 A 
ENDROOT
BRANCH   3   7
HETATM    7  C7  31G B 401      -2.676  16.986  34.108  1.00 65.67     0.214 C 
BRANCH   7   8
HETATM    8  O3  31G B 401      -1.680  17.648  34.920  1.00 53.78    -0.346 OA
BRANCH   8   9
HETATM    9  C8  31G B 401      -0.718  17.005  35.663  1.00 47.27     0.085 C 
HETATM   10  C9  31G B 401      -0.800  16.530  36.959  1.00 42.14     0.038 C 
HETATM   11  C10 31G B 401       0.270  15.834  37.524  1.00 33.99     0.005 C 
HETATM   12  C11 31G B 401       1.444  15.681  36.856  1.00 33.71     0.031 C 
HETATM   13  C12 31G B 401       1.629  16.299  35.596  1.00 39.37     0.066 A 
HETATM   14  C13 31G B 401       0.528  16.968  34.959  1.00 44.07     0.069 A 
HETATM   15  N2  31G B 401       2.913  16.371  35.116  1.00 39.79    -0.191 N 
HETATM   16  C14 31G B 401       0.942  17.719  33.740  1.00 43.60     0.130 A 
HETATM   17  N1  31G B 401       2.196  17.777  33.293  1.00 41.12    -0.176 N 
HETATM   18  C15 31G B 401       3.140  17.123  34.007  1.00 40.11     0.677 A 
HETATM   19  H1  31G B 401       2.434  18.295  32.447  1.00  0.00     0.186 HD
HETATM   20  H2  31G B 401       3.675  15.874  35.578  1.00  0.00     0.184 HD
BRANCH  16  21
HETATM   21  N4  31G B 401       0.035  18.390  33.009  1.00 45.29    -0.384 N 
HETATM   22  H12 31G B 401      -0.282  19.319  33.265  0.00 45.23     0.157 HD
HETATM   23  H13 31G B 401      -0.299  18.022  32.125  0.00 45.23     0.157 HD
ENDBRANCH  16  21
BRANCH  18  24
HETATM   24  N3  31G B 401       4.407  17.279  33.607  1.00 39.21    -0.234 N 
HETATM   25  H11 31G B 401       5.063  16.507  33.630  0.00 39.23     0.174 HD
HETATM   26  H10 31G B 401       4.767  18.187  33.329  0.00 39.23     0.174 HD
ENDBRANCH  18  24
ENDBRANCH   8   9
ENDBRANCH   7   8
ENDBRANCH   3   7
BRANCH   5  27
HETATM   27  S1  31G B 401      -7.831  16.665  33.184  1.00101.94     0.286 S 
HETATM   28  O1  31G B 401      -7.379  17.038  31.900  1.00104.04    -0.206 OA
HETATM   29  O2  31G B 401      -8.731  15.583  33.302  1.00104.12    -0.206 OA
ENDBRANCH   5  27
TORSDOF 6
ENDMDL
MODEL 10
REMARK VINA RESULT:      -7.3      4.191      8.234
REMARK  6 active torsions:
REMARK  status: ('A' for Active; 'I' for Inactive)
REMARK    1  A    between atoms: C3_5  and  C7_14 
REMARK    2  A    between atoms: C5_8  and  S1_11 
REMARK    3  A    between atoms: C7_14  and  O3_17 
REMARK    4  A    between atoms: O3_17  and  C8_18 
REMARK    5  A    between atoms: C14_27  and  N4_34 
REMARK    6  A    between atoms: C15_30  and  N3_33 
ROOT
HETATM    1  C1  31G B 401      -6.222  16.379  31.309  1.00 81.96     0.002 A 
HETATM    2  C2  31G B 401      -4.870  16.163  31.110  1.00 79.63     0.009 A 
HETATM    3  C3  31G B 401      -3.970  16.210  32.165  1.00 77.68    -0.033 A 
HETATM    4  C4  31G B 401      -4.465  16.380  33.457  1.00 86.10     0.033 A 
HETATM    5  C5  31G B 401      -5.825  16.570  33.660  1.00 93.12     0.075 A 
HETATM    6  C6  31G B 401      -6.712  16.592  32.586  1.00 87.75     0.024 A 
ENDROOT
BRANCH   3   7
HETATM    7  C7  31G B 401      -2.495  16.174  31.859  1.00 65.67     0.214 C 
BRANCH   7   8
HETATM    8  O3  31G B 401      -1.576  17.133  32.428  1.00 53.78    -0.346 OA
BRANCH   8   9
HETATM    9  C8  31G B 401      -0.217  17.136  32.224  1.00 47.27     0.085 C 
HETATM   10  C9  31G B 401       0.484  16.862  31.064  1.00 42.14     0.038 C 
HETATM   11  C10 31G B 401       1.875  16.989  31.034  1.00 33.99     0.005 C 
HETATM   12  C11 31G B 401       2.580  17.295  32.156  1.00 33.71     0.031 C 
HETATM   13  C12 31G B 401       1.917  17.414  33.400  1.00 39.37     0.066 A 
HETATM   14  C13 31G B 401       0.482  17.354  33.455  1.00 44.07     0.069 A 
HETATM   15  N2  31G B 401       2.698  17.417  34.529  1.00 39.79    -0.191 N 
HETATM   16  C14 31G B 401      -0.037  17.307  34.851  1.00 43.60     0.130 A 
HETATM   17  N1  31G B 401       0.740  17.308  35.933  1.00 41.12    -0.176 N 
HETATM   18  C15 31G B 401       2.078  17.339  35.735  1.00 40.11     0.677 A 
HETATM   19  H1  31G B 401       0.343  17.286  36.872  1.00  0.00     0.186 HD
HETATM   20  H2  31G B 401       3.714  17.476  34.464  1.00  0.00     0.184 HD
BRANCH  16  21
HETATM   21  N4  31G B 401      -1.359  17.266  35.089  1.00 45.29    -0.384 N 
HETATM   22  H12 31G B 401      -1.758  16.675  35.811  0.00 45.23     0.157 HD
HETATM   23  H13 31G B 401      -1.996  17.891  34.608  0.00 45.23     0.157 HD
ENDBRANCH  16  21
BRANCH  18  24
HETATM   24  N3  31G B 401       2.846  17.231  36.826  1.00 39.21    -0.234 N 
HETATM   25  H11 31G B 401       3.095  16.324  37.205  0.00 39.23     0.174 HD
HETATM   26  H10 31G B 401       3.149  18.050  37.344  0.00 39.23     0.174 HD
ENDBRANCH  18  24
ENDBRANCH   8   9
ENDBRANCH   7   8
ENDBRANCH   3   7
BRANCH   5  27
HETATM   27  S1  31G B 401      -6.410  16.807  35.295  1.00101.94     0.286 S 
HETATM   28  O1  31G B 401      -5.364  16.527  36.202  1.00104.04    -0.206 OA
HETATM   29  O2  31G B 401      -7.135  18.010  35.441  1.00104.12    -0.206 OA
ENDBRANCH   5  27
TORSDOF 6
ENDMDL
MODEL 11
REMARK VINA RESULT:      -7.2      4.486      5.922
REMARK  6 active torsions:
REMARK  status: ('A' for Active; 'I' for Inactive)
REMARK    1  A    between atoms: C3_5  and  C7_14 
REMARK    2  A    between atoms: C5_8  and  S1_11 
REMARK    3  A    between atoms: C7_14  and  O3_17 
REMARK    4  A    between atoms: O3_17  and  C8_18 
REMARK    5  A    between atoms: C14_27  and  N4_34 
REMARK    6  A    between atoms: C15_30  and  N3_33 
ROOT
HETATM    1  C1  31G B 401       1.455  16.196  38.873  1.00 81.96     0.002 A 
HETATM    2  C2  31G B 401       0.701  16.091  37.718  1.00 79.63     0.009 A 
HETATM    3  C3  31G B 401       1.231  16.424  36.479  1.00 77.68    -0.033 A 
HETATM    4  C4  31G B 401       2.578  16.772  36.402  1.00 86.10     0.033 A 
HETATM    5  C5  31G B 401       3.343  16.850  37.558  1.00 93.12     0.075 A 
HETATM    6  C6  31G B 401       2.782  16.583  38.805  1.00 87.75     0.024 A 
ENDROOT
BRANCH   3   7
HETATM    7  C7  31G B 401       0.306  16.489  35.291  1.00 65.67     0.214 C 
BRANCH   7   8
HETATM    8  O3  31G B 401       0.431  17.519  34.285  1.00 53.78    -0.346 OA
BRANCH   8   9
HETATM    9  C8  31G B 401       0.989  17.338  33.041  1.00 47.27     0.085 C 
HETATM   10  C9  31G B 401       2.325  17.307  32.689  1.00 42.14     0.038 C 
HETATM   11  C10 31G B 401       2.701  17.037  31.371  1.00 33.99     0.005 C 
HETATM   12  C11 31G B 401       1.772  16.887  30.389  1.00 33.71     0.031 C 
HETATM   13  C12 31G B 401       0.400  17.082  30.675  1.00 39.37     0.066 A 
HETATM   14  C13 31G B 401      -0.025  17.297  32.031  1.00 44.07     0.069 A 
HETATM   15  N2  31G B 401      -0.449  17.222  29.606  1.00 39.79    -0.191 N 
HETATM   16  C14 31G B 401      -1.464  17.670  32.129  1.00 43.60     0.130 A 
HETATM   17  N1  31G B 401      -2.270  17.803  31.076  1.00 41.12    -0.176 N 
HETATM   18  C15 31G B 401      -1.731  17.598  29.852  1.00 40.11     0.677 A 
HETATM   19  H1  31G B 401      -3.254  18.049  31.189  1.00  0.00     0.186 HD
HETATM   20  H2  31G B 401      -0.127  17.049  28.654  1.00  0.00     0.184 HD
BRANCH  16  21
HETATM   21  N4  31G B 401      -2.035  17.890  33.325  1.00 45.29    -0.384 N 
HETATM   22  H12 31G B 401      -1.621  17.555  34.189  0.00 45.23     0.157 HD
HETATM   23  H13 31G B 401      -2.858  18.476  33.412  0.00 45.23     0.157 HD
ENDBRANCH  16  21
BRANCH  18  24
HETATM   24  N3  31G B 401      -2.524  17.840  28.802  1.00 39.21    -0.234 N 
HETATM   25  H11 31G B 401      -2.728  18.788  28.506  0.00 39.23     0.174 HD
HETATM   26  H10 31G B 401      -2.996  17.088  28.310  0.00 39.23     0.174 HD
ENDBRANCH  18  24
ENDBRANCH   8   9
ENDBRANCH   7   8
ENDBRANCH   3   7
BRANCH   5  27
HETATM   27  S1  31G B 401       5.027  17.316  37.426  1.00101.94     0.286 S 
HETATM   28  O1  31G B 401       5.462  17.097  36.101  1.00104.04    -0.206 OA
HETATM   29  O2  31G B 401       5.292  18.564  38.033  1.00104.12    -0.206 OA
ENDBRANCH   5  27
TORSDOF 6
ENDMDL
MODEL 12
REMARK VINA RESULT:      -7.2      5.375      8.261
REMARK  6 active torsions:
REMARK  status: ('A' for Active; 'I' for Inactive)
REMARK    1  A    between atoms: C3_5  and  C7_14 
REMARK    2  A    between atoms: C5_8  and  S1_11 
REMARK    3  A    between atoms: C7_14  and  O3_17 
REMARK    4  A    between atoms: O3_17  and  C8_18 
REMARK    5  A    between atoms: C14_27  and  N4_34 
REMARK    6  A    between atoms: C15_30  and  N3_33 
ROOT
HETATM    1  C1  31G B 401      -3.464  15.371  28.820  1.00 81.96     0.002 A 
HETATM    2  C2  31G B 401      -2.546  16.036  29.613  1.00 79.63     0.009 A 
HETATM    3  C3  31G B 401      -2.550  17.421  29.712  1.00 77.68    -0.033 A 
HETATM    4  C4  31G B 401      -3.564  18.132  29.075  1.00 86.10     0.033 A 
HETATM    5  C5  31G B 401      -4.502  17.462  28.301  1.00 93.12     0.075 A 
HETATM    6  C6  31G B 401      -4.447  16.078  28.150  1.00 87.75     0.024 A 
ENDROOT
BRANCH   3   7
HETATM    7  C7  31G B 401      -1.405  18.098  30.420  1.00 65.67     0.214 C 
BRANCH   7   8
HETATM    8  O3  31G B 401      -0.677  17.446  31.484  1.00 53.78    -0.346 OA
BRANCH   8   9
HETATM    9  C8  31G B 401      -1.106  17.354  32.787  1.00 47.27     0.085 C 
HETATM   10  C9  31G B 401      -2.397  17.415  33.280  1.00 42.14     0.038 C 
HETATM   11  C10 31G B 401      -2.641  17.227  34.641  1.00 33.99     0.005 C 
HETATM   12  C11 31G B 401      -1.621  17.069  35.527  1.00 33.71     0.031 C 
HETATM   13  C12 31G B 401      -0.280  17.173  35.089  1.00 39.37     0.066 A 
HETATM   14  C13 31G B 401       0.008  17.302  33.687  1.00 44.07     0.069 A 
HETATM   15  N2  31G B 401       0.686  17.313  36.054  1.00 39.79    -0.191 N 
HETATM   16  C14 31G B 401       1.445  17.587  33.419  1.00 43.60     0.130 A 
HETATM   17  N1  31G B 401       2.365  17.721  34.374  1.00 41.12    -0.176 N 
HETATM   18  C15 31G B 401       1.952  17.604  35.656  1.00 40.11     0.677 A 
HETATM   19  H1  31G B 401       3.342  17.906  34.146  1.00  0.00     0.186 HD
HETATM   20  H2  31G B 401       0.460  17.201  37.043  1.00  0.00     0.184 HD
BRANCH  16  21
HETATM   21  N4  31G B 401       1.894  17.720  32.160  1.00 45.29    -0.384 N 
HETATM   22  H12 31G B 401       1.271  17.923  31.385  0.00 45.23     0.157 HD
HETATM   23  H13 31G B 401       2.887  17.706  31.955  0.00 45.23     0.157 HD
ENDBRANCH  16  21
BRANCH  18  24
HETATM   24  N3  31G B 401       2.864  17.848  36.603  1.00 39.21    -0.234 N 
HETATM   25  H11 31G B 401       2.682  17.628  37.576  0.00 39.23     0.174 HD
HETATM   26  H10 31G B 401       3.739  18.316  36.389  0.00 39.23     0.174 HD
ENDBRANCH  18  24
ENDBRANCH   8   9
ENDBRANCH   7   8
ENDBRANCH   3   7
BRANCH   5  27
HETATM   27  S1  31G B 401      -5.750  18.391  27.493  1.00101.94     0.286 S 
HETATM   28  O1  31G B 401      -6.281  19.333  28.399  1.00104.04    -0.206 OA
HETATM   29  O2  31G B 401      -5.352  18.829  26.210  1.00104.12    -0.206 OA
ENDBRANCH   5  27
TORSDOF 6
ENDMDL
MODEL 13
REMARK VINA RESULT:      -7.2      4.283      7.722
REMARK  6 active torsions:
REMARK  status: ('A' for Active; 'I' for Inactive)
REMARK    1  A    between atoms: C3_5  and  C7_14 
REMARK    2  A    between atoms: C5_8  and  S1_11 
REMARK    3  A    between atoms: C7_14  and  O3_17 
REMARK    4  A    between atoms: O3_17  and  C8_18 
REMARK    5  A    between atoms: C14_27  and  N4_34 
REMARK    6  A    between atoms: C15_30  and  N3_33 
ROOT
HETATM    1  C1  31G B 401      -5.683  16.656  33.937  1.00 81.96     0.002 A 
HETATM    2  C2  31G B 401      -4.689  17.067  34.807  1.00 79.63     0.009 A 
HETATM    3  C3  31G B 401      -3.350  17.029  34.441  1.00 77.68    -0.033 A 
HETATM    4  C4  31G B 401      -3.026  16.662  33.137  1.00 86.10     0.033 A 
HETATM    5  C5  31G B 401      -4.026  16.275  32.255  1.00 93.12     0.075 A 
HETATM    6  C6  31G B 401      -5.360  16.248  32.655  1.00 87.75     0.024 A 
ENDROOT
BRANCH   3   7
HETATM    7  C7  31G B 401      -2.305  17.291  35.495  1.00 65.67     0.214 C 
BRANCH   7   8
HETATM    8  O3  31G B 401      -0.902  17.393  35.165  1.00 53.78    -0.346 OA
BRANCH   8   9
HETATM    9  C8  31G B 401       0.105  16.700  35.793  1.00 47.27     0.085 C 
HETATM   10  C9  31G B 401       0.102  16.116  37.047  1.00 42.14     0.038 C 
HETATM   11  C10 31G B 401       1.207  15.385  37.487  1.00 33.99     0.005 C 
HETATM   12  C11 31G B 401       2.341  15.301  36.741  1.00 33.71     0.031 C 
HETATM   13  C12 31G B 401       2.448  16.026  35.530  1.00 39.37     0.066 A 
HETATM   14  C13 31G B 401       1.308  16.736  35.017  1.00 44.07     0.069 A 
HETATM   15  N2  31G B 401       3.701  16.152  34.984  1.00 39.79    -0.191 N 
HETATM   16  C14 31G B 401       1.645  17.592  33.845  1.00 43.60     0.130 A 
HETATM   17  N1  31G B 401       2.870  17.701  33.333  1.00 41.12    -0.176 N 
HETATM   18  C15 31G B 401       3.858  16.998  33.932  1.00 40.11     0.677 A 
HETATM   19  H1  31G B 401       3.055  18.290  32.522  1.00  0.00     0.186 HD
HETATM   20  H2  31G B 401       4.491  15.626  35.357  1.00  0.00     0.184 HD
BRANCH  16  21
HETATM   21  N4  31G B 401       0.693  18.313  33.228  1.00 45.29    -0.384 N 
HETATM   22  H12 31G B 401      -0.266  17.990  33.158  0.00 45.23     0.157 HD
HETATM   23  H13 31G B 401       0.886  19.247  32.886  0.00 45.23     0.157 HD
ENDBRANCH  16  21
BRANCH  18  24
HETATM   24  N3  31G B 401       5.099  17.201  33.474  1.00 39.21    -0.234 N 
HETATM   25  H11 31G B 401       5.491  18.134  33.418  0.00 39.23     0.174 HD
HETATM   26  H10 31G B 401       5.661  16.438  33.111  0.00 39.23     0.174 HD
ENDBRANCH  18  24
ENDBRANCH   8   9
ENDBRANCH   7   8
ENDBRANCH   3   7
BRANCH   5  27
HETATM   27  S1  31G B 401      -3.579  15.794  30.629  1.00101.94     0.286 S 
HETATM   28  O1  31G B 401      -4.088  16.740  29.714  1.00104.04    -0.206 OA
HETATM   29  O2  31G B 401      -2.222  15.414  30.532  1.00104.12    -0.206 OA
ENDBRANCH   5  27
TORSDOF 6
ENDMDL
MODEL 14
REMARK VINA RESULT:      -7.1      5.310      8.374
REMARK  6 active torsions:
REMARK  status: ('A' for Active; 'I' for Inactive)
REMARK    1  A    between atoms: C3_5  and  C7_14 
REMARK    2  A    between atoms: C5_8  and  S1_11 
REMARK    3  A    between atoms: C7_14  and  O3_17 
REMARK    4  A    between atoms: O3_17  and  C8_18 
REMARK    5  A    between atoms: C14_27  and  N4_34 
REMARK    6  A    between atoms: C15_30  and  N3_33 
ROOT
HETATM    1  C1  31G B 401      -6.655  14.427  26.872  1.00 81.96     0.002 A 
HETATM    2  C2  31G B 401      -5.972  14.090  28.027  1.00 79.63     0.009 A 
HETATM    3  C3  31G B 401      -5.297  15.049  28.770  1.00 77.68    -0.033 A 
HETATM    4  C4  31G B 401      -5.402  16.384  28.387  1.00 86.10     0.033 A 
HETATM    5  C5  31G B 401      -6.110  16.726  27.242  1.00 93.12     0.075 A 
HETATM    6  C6  31G B 401      -6.724  15.747  26.464  1.00 87.75     0.024 A 
ENDROOT
BRANCH   3   7
HETATM    7  C7  31G B 401      -4.405  14.594  29.895  1.00 65.67     0.214 C 
BRANCH   7   8
HETATM    8  O3  31G B 401      -3.407  15.465  30.474  1.00 53.78    -0.346 OA
BRANCH   8   9
HETATM    9  C8  31G B 401      -3.490  16.034  31.723  1.00 47.27     0.085 C 
HETATM   10  C9  31G B 401      -4.583  16.113  32.566  1.00 42.14     0.038 C 
HETATM   11  C10 31G B 401      -4.452  16.672  33.839  1.00 33.99     0.005 C 
HETATM   12  C11 31G B 401      -3.280  17.228  34.249  1.00 33.71     0.031 C 
HETATM   13  C12 31G B 401      -2.189  17.321  33.353  1.00 39.37     0.066 A 
HETATM   14  C13 31G B 401      -2.268  16.700  32.060  1.00 44.07     0.069 A 
HETATM   15  N2  31G B 401      -1.156  18.153  33.709  1.00 39.79    -0.191 N 
HETATM   16  C14 31G B 401      -1.118  17.053  31.182  1.00 43.60     0.130 A 
HETATM   17  N1  31G B 401      -0.127  17.866  31.547  1.00 41.12    -0.176 N 
HETATM   18  C15 31G B 401      -0.191  18.405  32.786  1.00 40.11     0.677 A 
HETATM   19  H1  31G B 401       0.649  18.072  30.918  1.00  0.00     0.186 HD
HETATM   20  H2  31G B 401      -1.113  18.569  34.639  1.00  0.00     0.184 HD
BRANCH  16  21
HETATM   21  N4  31G B 401      -1.022  16.546  29.941  1.00 45.29    -0.384 N 
HETATM   22  H12 31G B 401      -1.829  16.454  29.334  0.00 45.23     0.157 HD
HETATM   23  H13 31G B 401      -0.120  16.316  29.539  0.00 45.23     0.157 HD
ENDBRANCH  16  21
BRANCH  18  24
HETATM   24  N3  31G B 401       0.753  19.301  33.097  1.00 39.21    -0.234 N 
HETATM   25  H11 31G B 401       0.592  20.007  33.807  0.00 39.23     0.174 HD
HETATM   26  H10 31G B 401       1.632  19.342  32.592  0.00 39.23     0.174 HD
ENDBRANCH  18  24
ENDBRANCH   8   9
ENDBRANCH   7   8
ENDBRANCH   3   7
BRANCH   5  27
HETATM   27  S1  31G B 401      -6.199  18.413  26.777  1.00101.94     0.286 S 
HETATM   28  O1  31G B 401      -5.546  19.195  27.753  1.00104.04    -0.206 OA
HETATM   29  O2  31G B 401      -5.879  18.616  25.416  1.00104.12    -0.206 OA
ENDBRANCH   5  27
TORSDOF 6
ENDMDL
MODEL 15
REMARK VINA RESULT:      -7.1      5.225      8.524
REMARK  6 active torsions:
REMARK  status: ('A' for Active; 'I' for Inactive)
REMARK    1  A    between atoms: C3_5  and  C7_14 
REMARK    2  A    between atoms: C5_8  and  S1_11 
REMARK    3  A    between atoms: C7_14  and  O3_17 
REMARK    4  A    between atoms: O3_17  and  C8_18 
REMARK    5  A    between atoms: C14_27  and  N4_34 
REMARK    6  A    between atoms: C15_30  and  N3_33 
ROOT
HETATM    1  C1  31G B 401      -4.042  15.171  28.887  1.00 81.96     0.002 A 
HETATM    2  C2  31G B 401      -3.075  15.950  29.496  1.00 79.63     0.009 A 
HETATM    3  C3  31G B 401      -3.020  17.322  29.290  1.00 77.68    -0.033 A 
HETATM    4  C4  31G B 401      -4.024  17.923  28.533  1.00 86.10     0.033 A 
HETATM    5  C5  31G B 401      -5.011  17.143  27.943  1.00 93.12     0.075 A 
HETATM    6  C6  31G B 401      -5.015  15.759  28.098  1.00 87.75     0.024 A 
ENDROOT
BRANCH   3   7
HETATM    7  C7  31G B 401      -1.829  18.084  29.810  1.00 65.67     0.214 C 
BRANCH   7   8
HETATM    8  O3  31G B 401      -1.435  18.024  31.198  1.00 53.78    -0.346 OA
BRANCH   8   9
HETATM    9  C8  31G B 401      -0.225  17.555  31.652  1.00 47.27     0.085 C 
HETATM   10  C9  31G B 401       0.854  17.095  30.921  1.00 42.14     0.038 C 
HETATM   11  C10 31G B 401       2.037  16.725  31.565  1.00 33.99     0.005 C 
HETATM   12  C11 31G B 401       2.131  16.722  32.921  1.00 33.71     0.031 C 
HETATM   13  C12 31G B 401       0.995  17.022  33.711  1.00 39.37     0.066 A 
HETATM   14  C13 31G B 401      -0.217  17.468  33.082  1.00 44.07     0.069 A 
HETATM   15  N2  31G B 401       1.060  16.708  35.046  1.00 39.79    -0.191 N 
HETATM   16  C14 31G B 401      -1.359  17.556  34.035  1.00 43.60     0.130 A 
HETATM   17  N1  31G B 401      -1.274  17.244  35.327  1.00 41.12    -0.176 N 
HETATM   18  C15 31G B 401      -0.077  16.809  35.783  1.00 40.11     0.677 A 
HETATM   19  H1  31G B 401      -2.079  17.329  35.948  1.00  0.00     0.186 HD
HETATM   20  H2  31G B 401       1.937  16.408  35.473  1.00  0.00     0.184 HD
BRANCH  16  21
HETATM   21  N4  31G B 401      -2.567  17.974  33.619  1.00 45.29    -0.384 N 
HETATM   22  H12 31G B 401      -3.324  18.161  34.268  0.00 45.23     0.157 HD
HETATM   23  H13 31G B 401      -2.735  18.199  32.645  0.00 45.23     0.157 HD
ENDBRANCH  16  21
BRANCH  18  24
HETATM   24  N3  31G B 401      -0.035  16.398  37.055  1.00 39.21    -0.234 N 
HETATM   25  H11 31G B 401       0.704  16.700  37.680  0.00 39.23     0.174 HD
HETATM   26  H10 31G B 401      -0.703  15.724  37.417  0.00 39.23     0.174 HD
ENDBRANCH  18  24
ENDBRANCH   8   9
ENDBRANCH   7   8
ENDBRANCH   3   7
BRANCH   5  27
HETATM   27  S1  31G B 401      -6.243  17.931  26.977  1.00101.94     0.286 S 
HETATM   28  O1  31G B 401      -7.260  18.409  27.829  1.00104.04    -0.206 OA
HETATM   29  O2  31G B 401      -5.696  18.805  26.011  1.00104.12    -0.206 OA
ENDBRANCH   5  27
TORSDOF 6
ENDMDL
MODEL 16
REMARK VINA RESULT:      -7.0      5.578      7.875
REMARK  6 active torsions:
REMARK  status: ('A' for Active; 'I' for Inactive)
REMARK    1  A    between atoms: C3_5  and  C7_14 
REMARK    2  A    between atoms: C5_8  and  S1_11 
REMARK    3  A    between atoms: C7_14  and  O3_17 
REMARK    4  A    between atoms: O3_17  and  C8_18 
REMARK    5  A    between atoms: C14_27  and  N4_34 
REMARK    6  A    between atoms: C15_30  and  N3_33 
ROOT
HETATM    1  C1  31G B 401      -8.768  14.246  33.003  1.00 81.96     0.002 A 
HETATM    2  C2  31G B 401      -8.721  14.675  31.688  1.00 79.63     0.009 A 
HETATM    3  C3  31G B 401      -8.041  15.831  31.332  1.00 77.68    -0.033 A 
HETATM    4  C4  31G B 401      -7.315  16.506  32.311  1.00 86.10     0.033 A 
HETATM    5  C5  31G B 401      -7.340  16.061  33.626  1.00 93.12     0.075 A 
HETATM    6  C6  31G B 401      -8.084  14.940  33.986  1.00 87.75     0.024 A 
ENDROOT
BRANCH   3   7
HETATM    7  C7  31G B 401      -8.197  16.357  29.929  1.00 65.67     0.214 C 
BRANCH   7   8
HETATM    8  O3  31G B 401      -7.076  16.452  29.023  1.00 53.78    -0.346 OA
BRANCH   8   9
HETATM    9  C8  31G B 401      -5.966  15.640  29.059  1.00 47.27     0.085 C 
HETATM   10  C9  31G B 401      -5.903  14.266  29.198  1.00 42.14     0.038 C 
HETATM   11  C10 31G B 401      -4.674  13.607  29.139  1.00 33.99     0.005 C 
HETATM   12  C11 31G B 401      -3.507  14.297  29.032  1.00 33.71     0.031 C 
HETATM   13  C12 31G B 401      -3.515  15.712  29.060  1.00 39.37     0.066 A 
HETATM   14  C13 31G B 401      -4.765  16.421  29.056  1.00 44.07     0.069 A 
HETATM   15  N2  31G B 401      -2.312  16.341  29.258  1.00 39.79    -0.191 N 
HETATM   16  C14 31G B 401      -4.595  17.884  29.277  1.00 43.60     0.130 A 
HETATM   17  N1  31G B 401      -3.417  18.474  29.470  1.00 41.12    -0.176 N 
HETATM   18  C15 31G B 401      -2.320  17.682  29.478  1.00 40.11     0.677 A 
HETATM   19  H1  31G B 401      -3.344  19.483  29.607  1.00  0.00     0.186 HD
HETATM   20  H2  31G B 401      -1.436  15.818  29.241  1.00  0.00     0.184 HD
BRANCH  16  21
HETATM   21  N4  31G B 401      -5.661  18.704  29.285  1.00 45.29    -0.384 N 
HETATM   22  H12 31G B 401      -6.600  18.363  29.461  0.00 45.23     0.157 HD
HETATM   23  H13 31G B 401      -5.548  19.708  29.200  0.00 45.23     0.157 HD
ENDBRANCH  16  21
BRANCH  18  24
HETATM   24  N3  31G B 401      -1.158  18.273  29.780  1.00 39.21    -0.234 N 
HETATM   25  H11 31G B 401      -0.504  17.845  30.426  0.00 39.23     0.174 HD
HETATM   26  H10 31G B 401      -0.923  19.194  29.423  0.00 39.23     0.174 HD
ENDBRANCH  18  24
ENDBRANCH   8   9
ENDBRANCH   7   8
ENDBRANCH   3   7
BRANCH   5  27
HETATM   27  S1  31G B 401      -6.436  16.950  34.836  1.00101.94     0.286 S 
HETATM   28  O1  31G B 401      -5.148  17.231  34.332  1.00104.04    -0.206 OA
HETATM   29  O2  31G B 401      -7.187  17.999  35.409  1.00104.12    -0.206 OA
ENDBRANCH   5  27
TORSDOF 6
ENDMDL
MODEL 17
REMARK VINA RESULT:      -7.0      1.226      2.414
REMARK  6 active torsions:
REMARK  status: ('A' for Active; 'I' for Inactive)
REMARK    1  A    between atoms: C3_5  and  C7_14 
REMARK    2  A    between atoms: C5_8  and  S1_11 
REMARK    3  A    between atoms: C7_14  and  O3_17 
REMARK    4  A    between atoms: O3_17  and  C8_18 
REMARK    5  A    between atoms: C14_27  and  N4_34 
REMARK    6  A    between atoms: C15_30  and  N3_33 
ROOT
HETATM    1  C1  31G B 401       0.056  16.207  37.416  1.00 81.96     0.002 A 
HETATM    2  C2  31G B 401      -1.106  16.673  36.827  1.00 79.63     0.009 A 
HETATM    3  C3  31G B 401      -1.132  17.061  35.495  1.00 77.68    -0.033 A 
HETATM    4  C4  31G B 401       0.013  16.877  34.723  1.00 86.10     0.033 A 
HETATM    5  C5  31G B 401       1.172  16.383  35.308  1.00 93.12     0.075 A 
HETATM    6  C6  31G B 401       1.209  16.065  36.664  1.00 87.75     0.024 A 
ENDROOT
BRANCH   3   7
HETATM    7  C7  31G B 401      -2.364  17.751  34.967  1.00 65.67     0.214 C 
BRANCH   7   8
HETATM    8  O3  31G B 401      -3.592  17.030  34.719  1.00 53.78    -0.346 OA
BRANCH   8   9
HETATM    9  C8  31G B 401      -4.038  16.643  33.478  1.00 47.27     0.085 C 
HETATM   10  C9  31G B 401      -3.326  16.531  32.298  1.00 42.14     0.038 C 
HETATM   11  C10 31G B 401      -3.944  16.047  31.144  1.00 33.99     0.005 C 
HETATM   12  C11 31G B 401      -5.273  15.759  31.123  1.00 33.71     0.031 C 
HETATM   13  C12 31G B 401      -6.073  16.022  32.260  1.00 39.37     0.066 A 
HETATM   14  C13 31G B 401      -5.458  16.459  33.483  1.00 44.07     0.069 A 
HETATM   15  N2  31G B 401      -7.435  16.004  32.085  1.00 39.79    -0.191 N 
HETATM   16  C14 31G B 401      -6.455  16.868  34.512  1.00 43.60     0.130 A 
HETATM   17  N1  31G B 401      -7.773  16.845  34.320  1.00 41.12    -0.176 N 
HETATM   18  C15 31G B 401      -8.217  16.437  33.109  1.00 40.11     0.677 A 
HETATM   19  H1  31G B 401      -8.422  17.123  35.056  1.00  0.00     0.186 HD
HETATM   20  H2  31G B 401      -7.848  15.674  31.213  1.00  0.00     0.184 HD
BRANCH  16  21
HETATM   21  N4  31G B 401      -6.054  17.287  35.724  1.00 45.29    -0.384 N 
HETATM   22  H12 31G B 401      -6.474  18.090  36.182  0.00 45.23     0.157 HD
HETATM   23  H13 31G B 401      -5.375  16.761  36.261  0.00 45.23     0.157 HD
ENDBRANCH  16  21
BRANCH  18  24
HETATM   24  N3  31G B 401      -9.535  16.522  32.895  1.00 39.21    -0.234 N 
HETATM   25  H11 31G B 401     -10.198  16.382  33.649  0.00 39.23     0.174 HD
HETATM   26  H10 31G B 401      -9.913  16.665  31.964  0.00 39.23     0.174 HD
ENDBRANCH  18  24
ENDBRANCH   8   9
ENDBRANCH   7   8
ENDBRANCH   3   7
BRANCH   5  27
HETATM   27  S1  31G B 401       2.603  16.189  34.314  1.00101.94     0.286 S 
HETATM   28  O1  31G B 401       2.628  17.211  33.341  1.00104.04    -0.206 OA
HETATM   29  O2  31G B 401       3.765  15.949  35.080  1.00104.12    -0.206 OA
ENDBRANCH   5  27
TORSDOF 6
ENDMDL
MODEL 18
REMARK VINA RESULT:      -6.9      4.908      8.630
REMARK  6 active torsions:
REMARK  status: ('A' for Active; 'I' for Inactive)
REMARK    1  A    between atoms: C3_5  and  C7_14 
REMARK    2  A    between atoms: C5_8  and  S1_11 
REMARK    3  A    between atoms: C7_14  and  O3_17 
REMARK    4  A    between atoms: O3_17  and  C8_18 
REMARK    5  A    between atoms: C14_27  and  N4_34 
REMARK    6  A    between atoms: C15_30  and  N3_33 
ROOT
HETATM    1  C1  31G B 401      -3.607  15.604  29.246  1.00 81.96     0.002 A 
HETATM    2  C2  31G B 401      -2.277  15.954  29.089  1.00 79.63     0.009 A 
HETATM    3  C3  31G B 401      -1.533  16.449  30.152  1.00 77.68    -0.033 A 
HETATM    4  C4  31G B 401      -2.121  16.493  31.414  1.00 86.10     0.033 A 
HETATM    5  C5  31G B 401      -3.448  16.116  31.576  1.00 93.12     0.075 A 
HETATM    6  C6  31G B 401      -4.207  15.689  30.489  1.00 87.75     0.024 A 
ENDROOT
BRANCH   3   7
HETATM    7  C7  31G B 401      -0.160  17.005  29.875  1.00 65.67     0.214 C 
BRANCH   7   8
HETATM    8  O3  31G B 401       0.630  17.629  30.911  1.00 53.78    -0.346 OA
BRANCH   8   9
HETATM    9  C8  31G B 401       1.880  17.215  31.304  1.00 47.27     0.085 C 
HETATM   10  C9  31G B 401       2.857  16.585  30.555  1.00 42.14     0.038 C 
HETATM   11  C10 31G B 401       4.104  16.304  31.116  1.00 33.99     0.005 C 
HETATM   12  C11 31G B 401       4.362  16.559  32.427  1.00 33.71     0.031 C 
HETATM   13  C12 31G B 401       3.334  17.044  33.270  1.00 39.37     0.066 A 
HETATM   14  C13 31G B 401       2.060  17.403  32.712  1.00 44.07     0.069 A 
HETATM   15  N2  31G B 401       3.557  16.991  34.624  1.00 39.79    -0.191 N 
HETATM   16  C14 31G B 401       1.043  17.712  33.756  1.00 43.60     0.130 A 
HETATM   17  N1  31G B 401       1.280  17.651  35.065  1.00 41.12    -0.176 N 
HETATM   18  C15 31G B 401       2.518  17.270  35.454  1.00 40.11     0.677 A 
HETATM   19  H1  31G B 401       0.557  17.882  35.747  1.00  0.00     0.186 HD
HETATM   20  H2  31G B 401       4.475  16.748  34.996  1.00  0.00     0.184 HD
BRANCH  16  21
HETATM   21  N4  31G B 401      -0.202  18.085  33.410  1.00 45.29    -0.384 N 
HETATM   22  H12 31G B 401      -0.553  19.020  33.589  0.00 45.23     0.157 HD
HETATM   23  H13 31G B 401      -0.804  17.465  32.880  0.00 45.23     0.157 HD
ENDBRANCH  16  21
BRANCH  18  24
HETATM   24  N3  31G B 401       2.709  17.110  36.769  1.00 39.21    -0.234 N 
HETATM   25  H11 31G B 401       2.878  17.905  37.375  0.00 39.23     0.174 HD
HETATM   26  H10 31G B 401       2.754  16.187  37.189  0.00 39.23     0.174 HD
ENDBRANCH  18  24
ENDBRANCH   8   9
ENDBRANCH   7   8
ENDBRANCH   3   7
BRANCH   5  27
HETATM   27  S1  31G B 401      -4.163  16.210  33.174  1.00101.94     0.286 S 
HETATM   28  O1  31G B 401      -3.319  16.970  34.011  1.00104.04    -0.206 OA
HETATM   29  O2  31G B 401      -5.540  16.520  33.132  1.00104.12    -0.206 OA
ENDBRANCH   5  27
TORSDOF 6
ENDMDL
MODEL 19
REMARK VINA RESULT:      -6.9      2.737      4.365
REMARK  6 active torsions:
REMARK  status: ('A' for Active; 'I' for Inactive)
REMARK    1  A    between atoms: C3_5  and  C7_14 
REMARK    2  A    between atoms: C5_8  and  S1_11 
REMARK    3  A    between atoms: C7_14  and  O3_17 
REMARK    4  A    between atoms: O3_17  and  C8_18 
REMARK    5  A    between atoms: C14_27  and  N4_34 
REMARK    6  A    between atoms: C15_30  and  N3_33 
ROOT
HETATM    1  C1  31G B 401       0.211  16.165  37.461  1.00 81.96     0.002 A 
HETATM    2  C2  31G B 401       0.145  16.439  36.106  1.00 79.63     0.009 A 
HETATM    3  C3  31G B 401       1.193  17.068  35.447  1.00 77.68    -0.033 A 
HETATM    4  C4  31G B 401       2.364  17.330  36.155  1.00 86.10     0.033 A 
HETATM    5  C5  31G B 401       2.440  17.031  37.509  1.00 93.12     0.075 A 
HETATM    6  C6  31G B 401       1.356  16.465  38.177  1.00 87.75     0.024 A 
ENDROOT
BRANCH   3   7
HETATM    7  C7  31G B 401       0.983  17.524  34.027  1.00 65.67     0.214 C 
BRANCH   7   8
HETATM    8  O3  31G B 401      -0.336  17.797  33.503  1.00 53.78    -0.346 OA
BRANCH   8   9
HETATM    9  C8  31G B 401      -0.891  17.177  32.409  1.00 47.27     0.085 C 
HETATM   10  C9  31G B 401      -0.377  17.051  31.132  1.00 42.14     0.038 C 
HETATM   11  C10 31G B 401      -1.063  16.315  30.165  1.00 33.99     0.005 C 
HETATM   12  C11 31G B 401      -2.287  15.780  30.421  1.00 33.71     0.031 C 
HETATM   13  C12 31G B 401      -2.925  16.030  31.659  1.00 39.37     0.066 A 
HETATM   14  C13 31G B 401      -2.221  16.729  32.699  1.00 44.07     0.069 A 
HETATM   15  N2  31G B 401      -4.262  15.732  31.747  1.00 39.79    -0.191 N 
HETATM   16  C14 31G B 401      -3.096  17.071  33.855  1.00 43.60     0.130 A 
HETATM   17  N1  31G B 401      -4.393  16.774  33.918  1.00 41.12    -0.176 N 
HETATM   18  C15 31G B 401      -4.936  16.138  32.855  1.00 40.11     0.677 A 
HETATM   19  H1  31G B 401      -4.954  17.017  34.734  1.00  0.00     0.186 HD
HETATM   20  H2  31G B 401      -4.736  15.221  31.002  1.00  0.00     0.184 HD
BRANCH  16  21
HETATM   21  N4  31G B 401      -2.597  17.711  34.926  1.00 45.29    -0.384 N 
HETATM   22  H12 31G B 401      -1.672  18.127  34.922  0.00 45.23     0.157 HD
HETATM   23  H13 31G B 401      -3.165  17.873  35.750  0.00 45.23     0.157 HD
ENDBRANCH  16  21
BRANCH  18  24
HETATM   24  N3  31G B 401      -6.259  15.944  32.886  1.00 39.21    -0.234 N 
HETATM   25  H11 31G B 401      -6.779  16.012  33.754  0.00 39.23     0.174 HD
HETATM   26  H10 31G B 401      -6.774  15.660  32.058  0.00 39.23     0.174 HD
ENDBRANCH  18  24
ENDBRANCH   8   9
ENDBRANCH   7   8
ENDBRANCH   3   7
BRANCH   5  27
HETATM   27  S1  31G B 401       3.919  17.399  38.373  1.00101.94     0.286 S 
HETATM   28  O1  31G B 401       4.435  16.209  38.929  1.00104.04    -0.206 OA
HETATM   29  O2  31G B 401       4.783  18.237  37.634  1.00104.12    -0.206 OA
ENDBRANCH   5  27
TORSDOF 6
ENDMDL
MODEL 20
REMARK VINA RESULT:      -6.8      2.920      4.194
REMARK  6 active torsions:
REMARK  status: ('A' for Active; 'I' for Inactive)
REMARK    1  A    between atoms: C3_5  and  C7_14 
REMARK    2  A    between atoms: C5_8  and  S1_11 
REMARK    3  A    between atoms: C7_14  and  O3_17 
REMARK    4  A    between atoms: O3_17  and  C8_18 
REMARK    5  A    between atoms: C14_27  and  N4_34 
REMARK    6  A    between atoms: C15_30  and  N3_33 
ROOT
HETATM    1  C1  31G B 401      -0.020  16.592  37.398  1.00 81.96     0.002 A 
HETATM    2  C2  31G B 401      -0.966  16.830  36.417  1.00 79.63     0.009 A 
HETATM    3  C3  31G B 401      -0.603  16.977  35.086  1.00 77.68    -0.033 A 
HETATM    4  C4  31G B 401       0.731  16.780  34.733  1.00 86.10     0.033 A 
HETATM    5  C5  31G B 401       1.677  16.515  35.714  1.00 93.12     0.075 A 
HETATM    6  C6  31G B 401       1.313  16.440  37.056  1.00 87.75     0.024 A 
ENDROOT
BRANCH   3   7
HETATM    7  C7  31G B 401      -1.644  17.438  34.099  1.00 65.67     0.214 C 
BRANCH   7   8
HETATM    8  O3  31G B 401      -2.012  16.638  32.953  1.00 53.78    -0.346 OA
BRANCH   8   9
HETATM    9  C8  31G B 401      -2.015  17.084  31.653  1.00 47.27     0.085 C 
HETATM   10  C9  31G B 401      -1.188  18.018  31.056  1.00 42.14     0.038 C 
HETATM   11  C10 31G B 401      -1.300  18.288  29.691  1.00 33.99     0.005 C 
HETATM   12  C11 31G B 401      -2.273  17.713  28.934  1.00 33.71     0.031 C 
HETATM   13  C12 31G B 401      -3.246  16.884  29.541  1.00 39.37     0.066 A 
HETATM   14  C13 31G B 401      -3.123  16.534  30.930  1.00 44.07     0.069 A 
HETATM   15  N2  31G B 401      -4.364  16.585  28.803  1.00 39.79    -0.191 N 
HETATM   16  C14 31G B 401      -4.322  15.818  31.449  1.00 43.60     0.130 A 
HETATM   17  N1  31G B 401      -5.398  15.541  30.714  1.00 41.12    -0.176 N 
HETATM   18  C15 31G B 401      -5.393  15.954  29.426  1.00 40.11     0.677 A 
HETATM   19  H1  31G B 401      -6.194  15.039  31.107  1.00  0.00     0.186 HD
HETATM   20  H2  31G B 401      -4.421  16.830  27.814  1.00  0.00     0.184 HD
BRANCH  16  21
HETATM   21  N4  31G B 401      -4.370  15.401  32.726  1.00 45.29    -0.384 N 
HETATM   22  H12 31G B 401      -4.262  16.040  33.506  0.00 45.23     0.157 HD
HETATM   23  H13 31G B 401      -4.602  14.440  32.953  0.00 45.23     0.157 HD
ENDBRANCH  16  21
BRANCH  18  24
HETATM   24  N3  31G B 401      -6.521  15.764  28.733  1.00 39.21    -0.234 N 
HETATM   25  H11 31G B 401      -6.989  16.535  28.270  0.00 39.23     0.174 HD
HETATM   26  H10 31G B 401      -6.977  14.857  28.701  0.00 39.23     0.174 HD
ENDBRANCH  18  24
ENDBRANCH   8   9
ENDBRANCH   7   8
ENDBRANCH   3   7
BRANCH   5  27
HETATM   27  S1  31G B 401       3.350  16.298  35.237  1.00101.94     0.286 S 
HETATM   28  O1  31G B 401       3.489  16.648  33.877  1.00104.04    -0.206 OA
HETATM   29  O2  31G B 401       4.254  16.842  36.176  1.00104.12    -0.206 OA
ENDBRANCH   5  27
TORSDOF 6
ENDMDL
