REMARK  5 active torsions:
REMARK  status: ('A' for Active; 'I' for Inactive)
REMARK    1  A    between atoms: C2_4  and  N2_20 
REMARK    2  A    between atoms: C3_6  and  O3_22 
REMARK    3  A    between atoms: C4_8  and  O4_24 
REMARK    4  A    between atoms: C5_10  and  C6_12 
REMARK    5  A    between atoms: C6_12  and  O6_27 
REMARK       I    between atoms: C7_15  and  N2_20 
ROOT
HETATM    1  C1  NAG A 700      56.104 177.789 171.703  1.00237.24     0.196 C 
HETATM    2  C2  NAG A 700      55.363 177.385 172.976  1.00284.04     0.139 C 
HETATM    3  C3  NAG A 700      55.714 175.948 173.358  1.00318.04     0.174 C 
HETATM    4  C4  NAG A 700      55.466 175.008 172.185  1.00298.92     0.180 C 
HETATM    5  C5  NAG A 700      56.201 175.508 170.945  1.00297.28     0.176 C 
HETATM    6  O5  NAG A 700      55.808 176.859 170.658  1.00257.71    -0.379 OA
ENDROOT
BRANCH   2   7
HETATM    7  N2  NAG A 700      55.670 178.292 174.070  1.00326.77    -0.352 N 
HETATM    8  C7  NAG A 700      54.786 178.618 175.019  1.00328.74     0.214 C 
HETATM    9  C8  NAG A 700      55.274 179.563 176.074  1.00328.56     0.117 C 
HETATM   10  O7  NAG A 700      53.644 178.170 175.024  1.00327.57    -0.274 OA
HETATM   11  H2  NAG A 700      56.604 178.699 174.116  1.00  0.00     0.163 HD
ENDBRANCH   2   7
BRANCH   3  12
HETATM   12  O3  NAG A 700      54.929 175.547 174.475  1.00322.86    -0.391 OA
HETATM   13  H3  NAG A 700      55.147 174.653 174.713  1.00  0.00     0.210 HD
ENDBRANCH   3  12
BRANCH   5  14
HETATM   14  C6  NAG A 700      55.895 174.695 169.709  1.00300.81     0.198 C 
BRANCH  14  15
HETATM   15  O6  NAG A 700      55.706 175.527 168.572  1.00307.66    -0.398 OA
HETATM   16  H6  NAG A 700      55.514 175.016 167.795  1.00  0.00     0.209 HD
ENDBRANCH  14  15
ENDBRANCH   5  14
BRANCH   4  17
HETATM   17  O4  NAG A 700      55.926 173.699 172.504  1.00303.14    -0.390 OA
HETATM   18  H4  NAG A 700      55.771 173.113 171.773  1.00  0.00     0.210 HD
ENDBRANCH   4  17
TORSDOF 5
