MODEL 1
REMARK VINA RESULT:      -7.7      0.000      0.000
REMARK  29 active torsions:
REMARK  status: ('A' for Active; 'I' for Inactive)
REMARK    1  A    between atoms: N_1  and  CA_2 
REMARK    2  A    between atoms: CA_2  and  C_4 
REMARK    3  A    between atoms: CA_2  and  CB_6 
REMARK       I    between atoms: C_4  and  N1_19 
REMARK    4  A    between atoms: CB_6  and  CG_9 
REMARK    5  A    between atoms: CG_9  and  CD_12 
REMARK    6  A    between atoms: CD_12  and  NE_15 
REMARK       I    between atoms: NE_15  and  CZ_16 
REMARK       I    between atoms: CZ_16  and  NH1_17 
REMARK    7  A    between atoms: N1_19  and  CA1_20 
REMARK    8  A    between atoms: CA1_20  and  C1_22 
REMARK    9  A    between atoms: CA1_20  and  CB1_24 
REMARK       I    between atoms: C1_22  and  N2_34 
REMARK   10  A    between atoms: N2_34  and  CA2_35 
REMARK   11  A    between atoms: CA2_35  and  C2_37 
REMARK   12  A    between atoms: CA2_35  and  CB2_39 
REMARK   13  A    between atoms: CB2_39  and  CG3_42 
REMARK   14  A    between atoms: N3_52  and  CA3_53 
REMARK   15  A    between atoms: CA3_53  and  C3_55 
REMARK   16  A    between atoms: CA3_53  and  CB3_57 
REMARK       I    between atoms: C3_55  and  N4_71 
REMARK   17  A    between atoms: CB3_57  and  CG4_60 
REMARK   18  A    between atoms: N4_71  and  CA4_72 
REMARK   19  A    between atoms: CA4_72  and  C4_74 
REMARK   20  A    between atoms: CA4_72  and  CB4_76 
REMARK       I    between atoms: C4_74  and  N5_85 
REMARK   21  A    between atoms: CB4_76  and  CG5_79 
REMARK   22  A    between atoms: CG5_79  and  CD3_82 
REMARK   23  A    between atoms: N5_85  and  CA5_86 
REMARK   24  A    between atoms: CA5_86  and  C5_88 
REMARK       I    between atoms: C5_88  and  N6_94 
REMARK   25  A    between atoms: N6_94  and  CA6_95 
REMARK   26  A    between atoms: CA6_95  and  C6_97 
REMARK   27  A    between atoms: CA6_95  and  CB6_99 
REMARK       I    between atoms: C6_97  and  N7_112 
REMARK   28  A    between atoms: CB6_99  and  CG6_102 
REMARK   29  A    between atoms: CG6_102  and  CD4_105 
ROOT
HETATM    1  N   0Q4 A 125      -1.183  19.033  32.714  1.00 21.27    -0.067 N 
HETATM    2  H   0Q4 A 125      -0.325  19.316  33.208  1.00 15.00     0.275 HD
HETATM    3  H2  0Q4 A 125      -1.468  19.762  32.012  1.00 15.00     0.275 HD
HETATM    4  HN3 0Q4 A 125      -1.936  18.901  33.407  1.00 15.00     0.275 HD
ENDROOT
BRANCH   1   5
HETATM    5  CA  0Q4 A 125      -0.972  17.779  31.929  1.00 21.76     0.274 C 
BRANCH   5   6
HETATM    6  C   0Q4 A 125      -1.722  17.903  30.564  1.00 21.89     0.249 C 
HETATM    7  O   0Q4 A 125      -1.151  18.401  29.575  1.00 22.48    -0.271 OA
HETATM    8  N1  0Q4 A 125      -2.961  17.387  30.504  1.00 19.10    -0.346 N 
HETATM    9  H1  0Q4 A 125      -3.397  17.012  31.299  1.00 15.00     0.163 HD
BRANCH   8  10
HETATM   10  CA1 0Q4 A 125      -3.767  17.376  29.283  1.00 18.90     0.180 C 
BRANCH  10  11
HETATM   11  C1  0Q4 A 125      -5.264  17.661  29.571  1.00 17.14     0.241 C 
HETATM   12  O1  0Q4 A 125      -5.777  18.755  29.374  1.00 18.87    -0.271 OA
HETATM   13  N2  0Q4 A 125      -5.938  16.686  30.155  1.00 17.78    -0.350 N 
HETATM   14  HN2 0Q4 A 125      -5.483  15.846  30.385  1.00 15.00     0.163 HD
BRANCH  13  15
HETATM   15  CA2 0Q4 A 125      -7.361  16.810  30.413  1.00 17.96     0.123 C 
BRANCH  15  16
HETATM   16  C2  0Q4 A 125      -7.821  16.513  31.835  1.00 17.56     0.081 C 
HETATM   17  N3  0Q4 A 125      -7.751  15.247  32.207  1.00 16.64    -0.387 N 
HETATM   18  H3  0Q4 A 125      -7.426  14.595  31.557  1.00 15.00     0.159 HD
BRANCH  17  19
HETATM   19  CA3 0Q4 A 125      -8.110  14.776  33.549  1.00 16.89     0.177 C 
BRANCH  19  20
HETATM   20  C3  0Q4 A 125      -9.498  14.094  33.390  1.00 15.06     0.241 C 
HETATM   21  O2  0Q4 A 125      -9.593  13.008  32.812  1.00 12.51    -0.271 OA
HETATM   22  N4  0Q4 A 125     -10.529  14.680  33.999  1.00 14.54    -0.346 N 
HETATM   23  H4  0Q4 A 125     -10.406  15.548  34.442  1.00 15.00     0.163 HD
BRANCH  22  24
HETATM   24  CA4 0Q4 A 125     -11.881  14.115  34.005  1.00 15.81     0.177 C 
BRANCH  24  25
HETATM   25  C4  0Q4 A 125     -13.003  15.072  33.589  1.00 17.52     0.241 C 
HETATM   26  O3  0Q4 A 125     -12.816  16.285  33.470  1.00 17.50    -0.271 OA
HETATM   27  N5  0Q4 A 125     -14.210  14.537  33.523  1.00 19.61    -0.346 N 
HETATM   28  H5  0Q4 A 125     -14.346  13.586  33.734  1.00 15.00     0.163 HD
BRANCH  27  29
HETATM   29  CA5 0Q4 A 125     -15.355  15.332  33.135  1.00 21.82     0.172 C 
HETATM   30  CB5 0Q4 A 125     -16.248  14.485  32.247  1.00 22.24     0.042 C 
BRANCH  29  31
HETATM   31  C5  0Q4 A 125     -16.202  15.940  34.281  1.00 24.09     0.240 C 
HETATM   32  O4  0Q4 A 125     -17.338  15.535  34.538  1.00 20.88    -0.271 OA
HETATM   33  N6  0Q4 A 125     -15.629  16.958  34.914  1.00 27.66    -0.346 N 
HETATM   34  H6  0Q4 A 125     -14.745  17.238  34.621  1.00 15.00     0.163 HD
BRANCH  33  35
HETATM   35  CA6 0Q4 A 125     -16.275  17.732  35.966  1.00 31.09     0.176 C 
BRANCH  35  36
HETATM   36  C6  0Q4 A 125     -17.111  18.807  35.251  1.00 33.78     0.238 C 
HETATM   37  O5  0Q4 A 125     -18.348  18.627  35.051  1.00 34.60    -0.271 OA
HETATM   38  N7  0Q4 A 125     -16.490  19.827  34.862  1.00 36.53    -0.368 N 
HETATM   39  H72 0Q4 A 125     -15.494  19.973  35.024  1.00  0.00     0.159 HD
HETATM   40  H71 0Q4 A 125     -17.045  20.540  34.388  1.00  0.00     0.159 HD
ENDBRANCH  35  36
BRANCH  35  41
HETATM   41  CB6 0Q4 A 125     -15.181  18.402  36.836  1.00 32.55     0.035 C 
BRANCH  41  42
HETATM   42  CG6 0Q4 A 125     -14.657  17.610  38.084  1.00 32.73     0.002 C 
BRANCH  42  43
HETATM   43  CD4 0Q4 A 125     -14.945  18.304  39.473  1.00 31.59    -0.004 C 
HETATM   44  CE  0Q4 A 125     -16.008  17.551  40.247  1.00 23.29     0.005 C 
ENDBRANCH  42  43
ENDBRANCH  41  42
ENDBRANCH  35  41
ENDBRANCH  33  35
ENDBRANCH  29  31
ENDBRANCH  27  29
ENDBRANCH  24  25
BRANCH  24  45
HETATM   45  CB4 0Q4 A 125     -12.186  13.535  35.414  1.00 17.07     0.045 C 
BRANCH  45  46
HETATM   46  CG5 0Q4 A 125     -12.517  14.522  36.517  1.00 18.50     0.116 C 
BRANCH  46  47
HETATM   47  CD3 0Q4 A 125     -13.802  14.166  37.280  1.00 26.68     0.172 C 
HETATM   48  OE1 0Q4 A 125     -14.899  14.370  36.729  1.00 29.71    -0.648 OA
HETATM   49  OE2 0Q4 A 125     -13.733  13.675  38.438  1.00 31.35    -0.648 OA
ENDBRANCH  46  47
ENDBRANCH  45  46
ENDBRANCH  24  45
ENDBRANCH  22  24
ENDBRANCH  19  20
BRANCH  19  50
HETATM   50  CB3 0Q4 A 125      -8.055  16.009  34.499  1.00 18.22     0.073 C 
BRANCH  50  51
HETATM   51  CG4 0Q4 A 125      -7.016  15.951  35.549  1.00 21.59    -0.056 A 
HETATM   52  CD1 0Q4 A 125      -5.721  15.554  35.243  1.00 22.99     0.007 A 
HETATM   53  CE1 0Q4 A 125      -4.710  15.538  36.232  1.00 24.00     0.001 A 
HETATM   54  CZ1 0Q4 A 125      -5.004  15.918  37.545  1.00 25.64     0.000 A 
HETATM   55  CE2 0Q4 A 125      -6.303  16.310  37.868  1.00 27.27     0.001 A 
HETATM   56  CD2 0Q4 A 125      -7.311  16.323  36.856  1.00 24.65     0.007 A 
ENDBRANCH  50  51
ENDBRANCH  19  50
ENDBRANCH  17  19
ENDBRANCH  15  16
BRANCH  15  57
HETATM   57  CB2 0Q4 A 125      -8.153  15.995  29.362  1.00 19.32     0.034 C 
BRANCH  57  58
HETATM   58  CG3 0Q4 A 125      -8.191  16.614  27.936  1.00 21.12    -0.020 C 
HETATM   59  CD1 0Q4 A 125      -8.847  15.698  26.903  1.00 21.22     0.009 C 
HETATM   60  CD2 0Q4 A 125      -8.912  17.949  27.969  1.00 17.47     0.009 C 
ENDBRANCH  57  58
ENDBRANCH  15  57
ENDBRANCH  13  15
ENDBRANCH  10  11
BRANCH  10  61
HETATM   61  CB1 0Q4 A 125      -3.503  16.016  28.454  1.00 19.28     0.009 C 
HETATM   62  CG1 0Q4 A 125      -3.344  14.808  29.379  1.00 20.08     0.012 C 
HETATM   63  CG2 0Q4 A 125      -4.678  15.724  27.498  1.00 19.54     0.012 C 
ENDBRANCH  10  61
ENDBRANCH   8  10
ENDBRANCH   5   6
BRANCH   5  64
HETATM   64  CB  0Q4 A 125      -1.443  16.581  32.763  1.00 21.80     0.044 C 
BRANCH  64  65
HETATM   65  CG  0Q4 A 125      -0.521  15.313  32.767  1.00 26.69     0.023 C 
BRANCH  65  66
HETATM   66  CD  0Q4 A 125       0.943  15.528  33.290  1.00 29.76     0.138 C 
BRANCH  66  67
HETATM   67  NE  0Q4 A 125       1.051  16.359  34.496  1.00 32.26    -0.227 N 
HETATM   68  CZ  0Q4 A 125       1.691  17.530  34.558  1.00 34.72     0.665 C 
HETATM   69  NH1 0Q4 A 125       2.265  18.014  33.470  1.00 35.07    -0.235 N 
HETATM   70  NH2 0Q4 A 125       1.863  18.157  35.731  1.00 35.86    -0.235 N 
HETATM   71 HH11 0Q4 A 125       2.217  17.510  32.609  1.00 15.00     0.174 HD
HETATM   72 HH12 0Q4 A 125       2.747  18.891  33.505  1.00 15.00     0.174 HD
HETATM   73 HH21 0Q4 A 125       1.513  17.758  36.576  1.00 15.00     0.174 HD
HETATM   74 HH22 0Q4 A 125       2.348  19.034  35.753  1.00 15.00     0.174 HD
HETATM   75  HE  0Q4 A 125       0.628  16.040  35.324  1.00 15.00     0.177 HD
ENDBRANCH  66  67
ENDBRANCH  65  66
ENDBRANCH  64  65
ENDBRANCH   5  64
ENDBRANCH   1   5
TORSDOF 29
ENDMDL
MODEL 2
REMARK VINA RESULT:      -7.6      2.420      3.949
REMARK  29 active torsions:
REMARK  status: ('A' for Active; 'I' for Inactive)
REMARK    1  A    between atoms: N_1  and  CA_2 
REMARK    2  A    between atoms: CA_2  and  C_4 
REMARK    3  A    between atoms: CA_2  and  CB_6 
REMARK       I    between atoms: C_4  and  N1_19 
REMARK    4  A    between atoms: CB_6  and  CG_9 
REMARK    5  A    between atoms: CG_9  and  CD_12 
REMARK    6  A    between atoms: CD_12  and  NE_15 
REMARK       I    between atoms: NE_15  and  CZ_16 
REMARK       I    between atoms: CZ_16  and  NH1_17 
REMARK    7  A    between atoms: N1_19  and  CA1_20 
REMARK    8  A    between atoms: CA1_20  and  C1_22 
REMARK    9  A    between atoms: CA1_20  and  CB1_24 
REMARK       I    between atoms: C1_22  and  N2_34 
REMARK   10  A    between atoms: N2_34  and  CA2_35 
REMARK   11  A    between atoms: CA2_35  and  C2_37 
REMARK   12  A    between atoms: CA2_35  and  CB2_39 
REMARK   13  A    between atoms: CB2_39  and  CG3_42 
REMARK   14  A    between atoms: N3_52  and  CA3_53 
REMARK   15  A    between atoms: CA3_53  and  C3_55 
REMARK   16  A    between atoms: CA3_53  and  CB3_57 
REMARK       I    between atoms: C3_55  and  N4_71 
REMARK   17  A    between atoms: CB3_57  and  CG4_60 
REMARK   18  A    between atoms: N4_71  and  CA4_72 
REMARK   19  A    between atoms: CA4_72  and  C4_74 
REMARK   20  A    between atoms: CA4_72  and  CB4_76 
REMARK       I    between atoms: C4_74  and  N5_85 
REMARK   21  A    between atoms: CB4_76  and  CG5_79 
REMARK   22  A    between atoms: CG5_79  and  CD3_82 
REMARK   23  A    between atoms: N5_85  and  CA5_86 
REMARK   24  A    between atoms: CA5_86  and  C5_88 
REMARK       I    between atoms: C5_88  and  N6_94 
REMARK   25  A    between atoms: N6_94  and  CA6_95 
REMARK   26  A    between atoms: CA6_95  and  C6_97 
REMARK   27  A    between atoms: CA6_95  and  CB6_99 
REMARK       I    between atoms: C6_97  and  N7_112 
REMARK   28  A    between atoms: CB6_99  and  CG6_102 
REMARK   29  A    between atoms: CG6_102  and  CD4_105 
ROOT
HETATM    1  N   0Q4 A 125       0.014  18.888  33.060  1.00 21.27    -0.067 N 
HETATM    2  H   0Q4 A 125      -0.507  19.028  33.937  1.00 15.00     0.275 HD
HETATM    3  H2  0Q4 A 125       1.049  18.855  33.241  1.00 15.00     0.275 HD
HETATM    4  HN3 0Q4 A 125      -0.204  19.665  32.417  1.00 15.00     0.275 HD
ENDROOT
BRANCH   1   5
HETATM    5  CA  0Q4 A 125      -0.326  17.576  32.427  1.00 21.76     0.274 C 
BRANCH   5   6
HETATM    6  C   0Q4 A 125      -1.410  17.811  31.327  1.00 21.89     0.249 C 
HETATM    7  O   0Q4 A 125      -1.411  18.863  30.660  1.00 22.48    -0.271 OA
HETATM    8  N1  0Q4 A 125      -2.271  16.806  31.100  1.00 19.10    -0.346 N 
HETATM    9  H1  0Q4 A 125      -2.261  15.991  31.647  1.00 15.00     0.163 HD
BRANCH   8  10
HETATM   10  CA1 0Q4 A 125      -3.305  16.853  30.065  1.00 18.90     0.180 C 
BRANCH  10  11
HETATM   11  C1  0Q4 A 125      -4.703  16.478  30.621  1.00 17.14     0.241 C 
HETATM   12  O1  0Q4 A 125      -4.856  15.927  31.704  1.00 18.87    -0.271 OA
HETATM   13  N2  0Q4 A 125      -5.725  16.680  29.808  1.00 17.78    -0.350 N 
HETATM   14  HN2 0Q4 A 125      -5.569  17.043  28.907  1.00 15.00     0.163 HD
BRANCH  13  15
HETATM   15  CA2 0Q4 A 125      -7.087  16.431  30.241  1.00 17.96     0.123 C 
BRANCH  15  16
HETATM   16  C2  0Q4 A 125      -7.307  16.288  31.741  1.00 17.56     0.081 C 
HETATM   17  N3  0Q4 A 125      -7.866  15.156  32.133  1.00 16.64    -0.387 N 
HETATM   18  H3  0Q4 A 125      -8.105  14.502  31.449  1.00 15.00     0.159 HD
BRANCH  17  19
HETATM   19  CA3 0Q4 A 125      -8.118  14.821  33.539  1.00 16.89     0.177 C 
BRANCH  19  20
HETATM   20  C3  0Q4 A 125      -9.532  14.175  33.562  1.00 15.06     0.241 C 
HETATM   21  O2  0Q4 A 125      -9.728  13.093  33.004  1.00 12.51    -0.271 OA
HETATM   22  N4  0Q4 A 125     -10.460  14.788  34.297  1.00 14.54    -0.346 N 
HETATM   23  H4  0Q4 A 125     -10.259  15.652  34.718  1.00 15.00     0.163 HD
BRANCH  22  24
HETATM   24  CA4 0Q4 A 125     -11.814  14.258  34.479  1.00 15.81     0.177 C 
BRANCH  24  25
HETATM   25  C4  0Q4 A 125     -12.916  14.964  33.682  1.00 17.52     0.241 C 
HETATM   26  O3  0Q4 A 125     -13.667  14.350  32.922  1.00 17.50    -0.271 OA
HETATM   27  N5  0Q4 A 125     -12.903  16.285  33.742  1.00 19.61    -0.346 N 
HETATM   28  H5  0Q4 A 125     -12.218  16.753  34.269  1.00 15.00     0.163 HD
BRANCH  27  29
HETATM   29  CA5 0Q4 A 125     -13.895  17.070  33.040  1.00 21.82     0.172 C 
HETATM   30  CB5 0Q4 A 125     -14.271  18.255  33.909  1.00 22.24     0.042 C 
BRANCH  29  31
HETATM   31  C5  0Q4 A 125     -13.512  17.575  31.626  1.00 24.09     0.240 C 
HETATM   32  O4  0Q4 A 125     -12.981  16.838  30.792  1.00 20.88    -0.271 OA
HETATM   33  N6  0Q4 A 125     -13.749  18.865  31.414  1.00 27.66    -0.346 N 
HETATM   34  H6  0Q4 A 125     -14.135  19.383  32.141  1.00 15.00     0.163 HD
BRANCH  33  35
HETATM   35  CA6 0Q4 A 125     -13.392  19.570  30.190  1.00 31.09     0.176 C 
BRANCH  35  36
HETATM   36  C6  0Q4 A 125     -13.323  21.061  30.561  1.00 33.78     0.238 C 
HETATM   37  O5  0Q4 A 125     -12.640  21.441  31.557  1.00 34.60    -0.271 OA
HETATM   38  N7  0Q4 A 125     -13.999  21.844  29.849  1.00 36.53    -0.368 N 
HETATM   39  H72 0Q4 A 125     -14.548  21.538  29.046  1.00  0.00     0.159 HD
HETATM   40  H71 0Q4 A 125     -13.952  22.832  30.095  1.00  0.00     0.159 HD
ENDBRANCH  35  36
BRANCH  35  41
HETATM   41  CB6 0Q4 A 125     -14.507  19.337  29.138  1.00 32.55     0.035 C 
BRANCH  41  42
HETATM   42  CG6 0Q4 A 125     -14.071  18.847  27.712  1.00 32.73     0.002 C 
BRANCH  42  43
HETATM   43  CD4 0Q4 A 125     -12.543  18.467  27.586  1.00 31.59    -0.004 C 
HETATM   44  CE  0Q4 A 125     -12.363  17.203  26.771  1.00 23.29     0.005 C 
ENDBRANCH  42  43
ENDBRANCH  41  42
ENDBRANCH  35  41
ENDBRANCH  33  35
ENDBRANCH  29  31
ENDBRANCH  27  29
ENDBRANCH  24  25
BRANCH  24  45
HETATM   45  CB4 0Q4 A 125     -12.171  14.276  35.992  1.00 17.07     0.045 C 
BRANCH  45  46
HETATM   46  CG5 0Q4 A 125     -13.608  13.975  36.372  1.00 18.50     0.116 C 
BRANCH  46  47
HETATM   47  CD3 0Q4 A 125     -14.373  15.211  36.868  1.00 26.68     0.172 C 
HETATM   48  OE1 0Q4 A 125     -13.798  16.315  36.851  1.00 29.71    -0.648 OA
HETATM   49  OE2 0Q4 A 125     -15.559  15.097  37.277  1.00 31.35    -0.648 OA
ENDBRANCH  46  47
ENDBRANCH  45  46
ENDBRANCH  24  45
ENDBRANCH  22  24
ENDBRANCH  19  20
BRANCH  19  50
HETATM   50  CB3 0Q4 A 125      -7.947  16.133  34.362  1.00 18.22     0.073 C 
BRANCH  50  51
HETATM   51  CG4 0Q4 A 125      -6.916  16.084  35.419  1.00 21.59    -0.056 A 
HETATM   52  CD1 0Q4 A 125      -7.240  16.368  36.739  1.00 22.99     0.007 A 
HETATM   53  CE1 0Q4 A 125      -6.270  16.280  37.763  1.00 24.00     0.001 A 
HETATM   54  CZ1 0Q4 A 125      -4.955  15.910  37.459  1.00 25.64     0.000 A 
HETATM   55  CE2 0Q4 A 125      -4.615  15.632  36.136  1.00 27.27     0.001 A 
HETATM   56  CD2 0Q4 A 125      -5.608  15.722  35.114  1.00 24.65     0.007 A 
ENDBRANCH  50  51
ENDBRANCH  19  50
ENDBRANCH  17  19
ENDBRANCH  15  16
BRANCH  15  57
HETATM   57  CB2 0Q4 A 125      -7.673  15.237  29.449  1.00 19.32     0.034 C 
BRANCH  57  58
HETATM   58  CG3 0Q4 A 125      -8.941  15.558  28.608  1.00 21.12    -0.020 C 
HETATM   59  CD1 0Q4 A 125     -10.243  15.279  29.357  1.00 21.22     0.009 C 
HETATM   60  CD2 0Q4 A 125      -8.909  17.006  28.154  1.00 17.47     0.009 C 
ENDBRANCH  57  58
ENDBRANCH  15  57
ENDBRANCH  13  15
ENDBRANCH  10  11
BRANCH  10  61
HETATM   61  CB1 0Q4 A 125      -2.850  15.981  28.785  1.00 19.28     0.009 C 
HETATM   62  CG1 0Q4 A 125      -1.395  16.256  28.397  1.00 20.08     0.012 C 
HETATM   63  CG2 0Q4 A 125      -2.981  14.473  29.078  1.00 19.54     0.012 C 
ENDBRANCH  10  61
ENDBRANCH   8  10
ENDBRANCH   5   6
BRANCH   5  64
HETATM   64  CB  0Q4 A 125      -0.783  16.598  33.517  1.00 21.80     0.044 C 
BRANCH  64  65
HETATM   65  CG  0Q4 A 125      -1.197  17.217  34.896  1.00 26.69     0.023 C 
BRANCH  65  66
HETATM   66  CD  0Q4 A 125      -0.314  16.809  36.127  1.00 29.76     0.138 C 
BRANCH  66  67
HETATM   67  NE  0Q4 A 125       1.086  16.499  35.807  1.00 32.26    -0.227 N 
HETATM   68  CZ  0Q4 A 125       2.094  17.371  35.882  1.00 34.72     0.665 C 
HETATM   69  NH1 0Q4 A 125       1.855  18.607  36.287  1.00 35.07    -0.235 N 
HETATM   70  NH2 0Q4 A 125       3.318  17.047  35.437  1.00 35.86    -0.235 N 
HETATM   71 HH11 0Q4 A 125       0.929  18.883  36.538  1.00 15.00     0.174 HD
HETATM   72 HH12 0Q4 A 125       2.604  19.269  36.348  1.00 15.00     0.174 HD
HETATM   73 HH21 0Q4 A 125       3.492  16.146  35.044  1.00 15.00     0.174 HD
HETATM   74 HH22 0Q4 A 125       4.058  17.719  35.503  1.00 15.00     0.174 HD
HETATM   75  HE  0Q4 A 125       1.308  15.588  35.512  1.00 15.00     0.177 HD
ENDBRANCH  66  67
ENDBRANCH  65  66
ENDBRANCH  64  65
ENDBRANCH   5  64
ENDBRANCH   1   5
TORSDOF 29
ENDMDL
MODEL 3
REMARK VINA RESULT:      -7.4      3.367     12.026
REMARK  29 active torsions:
REMARK  status: ('A' for Active; 'I' for Inactive)
REMARK    1  A    between atoms: N_1  and  CA_2 
REMARK    2  A    between atoms: CA_2  and  C_4 
REMARK    3  A    between atoms: CA_2  and  CB_6 
REMARK       I    between atoms: C_4  and  N1_19 
REMARK    4  A    between atoms: CB_6  and  CG_9 
REMARK    5  A    between atoms: CG_9  and  CD_12 
REMARK    6  A    between atoms: CD_12  and  NE_15 
REMARK       I    between atoms: NE_15  and  CZ_16 
REMARK       I    between atoms: CZ_16  and  NH1_17 
REMARK    7  A    between atoms: N1_19  and  CA1_20 
REMARK    8  A    between atoms: CA1_20  and  C1_22 
REMARK    9  A    between atoms: CA1_20  and  CB1_24 
REMARK       I    between atoms: C1_22  and  N2_34 
REMARK   10  A    between atoms: N2_34  and  CA2_35 
REMARK   11  A    between atoms: CA2_35  and  C2_37 
REMARK   12  A    between atoms: CA2_35  and  CB2_39 
REMARK   13  A    between atoms: CB2_39  and  CG3_42 
REMARK   14  A    between atoms: N3_52  and  CA3_53 
REMARK   15  A    between atoms: CA3_53  and  C3_55 
REMARK   16  A    between atoms: CA3_53  and  CB3_57 
REMARK       I    between atoms: C3_55  and  N4_71 
REMARK   17  A    between atoms: CB3_57  and  CG4_60 
REMARK   18  A    between atoms: N4_71  and  CA4_72 
REMARK   19  A    between atoms: CA4_72  and  C4_74 
REMARK   20  A    between atoms: CA4_72  and  CB4_76 
REMARK       I    between atoms: C4_74  and  N5_85 
REMARK   21  A    between atoms: CB4_76  and  CG5_79 
REMARK   22  A    between atoms: CG5_79  and  CD3_82 
REMARK   23  A    between atoms: N5_85  and  CA5_86 
REMARK   24  A    between atoms: CA5_86  and  C5_88 
REMARK       I    between atoms: C5_88  and  N6_94 
REMARK   25  A    between atoms: N6_94  and  CA6_95 
REMARK   26  A    between atoms: CA6_95  and  C6_97 
REMARK   27  A    between atoms: CA6_95  and  CB6_99 
REMARK       I    between atoms: C6_97  and  N7_112 
REMARK   28  A    between atoms: CB6_99  and  CG6_102 
REMARK   29  A    between atoms: CG6_102  and  CD4_105 
ROOT
HETATM    1  N   0Q4 A 125     -10.535  19.366  28.249  1.00 21.27    -0.067 N 
HETATM    2  H   0Q4 A 125     -10.662  18.580  28.901  1.00 15.00     0.275 HD
HETATM    3  H2  0Q4 A 125     -10.733  19.069  27.260  1.00 15.00     0.275 HD
HETATM    4  HN3 0Q4 A 125      -9.564  19.707  28.324  1.00 15.00     0.275 HD
ENDROOT
BRANCH   1   5
HETATM    5  CA  0Q4 A 125     -11.499  20.473  28.536  1.00 21.76     0.274 C 
BRANCH   5   6
HETATM    6  C   0Q4 A 125     -12.661  19.917  29.420  1.00 21.89     0.249 C 
HETATM    7  O   0Q4 A 125     -13.617  20.650  29.736  1.00 22.48    -0.271 OA
HETATM    8  N1  0Q4 A 125     -12.602  18.616  29.750  1.00 19.10    -0.346 N 
HETATM    9  H1  0Q4 A 125     -11.832  18.061  29.503  1.00 15.00     0.163 HD
BRANCH   8  10
HETATM   10  CA1 0Q4 A 125     -13.643  17.937  30.524  1.00 18.90     0.180 C 
BRANCH  10  11
HETATM   11  C1  0Q4 A 125     -13.070  17.248  31.790  1.00 17.14     0.241 C 
HETATM   12  O1  0Q4 A 125     -13.316  17.640  32.923  1.00 18.87    -0.271 OA
HETATM   13  N2  0Q4 A 125     -12.200  16.276  31.578  1.00 17.78    -0.350 N 
HETATM   14  HN2 0Q4 A 125     -11.949  16.036  30.658  1.00 15.00     0.163 HD
BRANCH  13  15
HETATM   15  CA2 0Q4 A 125     -11.647  15.513  32.681  1.00 17.96     0.123 C 
BRANCH  15  16
HETATM   16  C2  0Q4 A 125     -10.136  15.320  32.683  1.00 17.56     0.081 C 
HETATM   17  N3  0Q4 A 125      -9.418  16.418  32.839  1.00 16.64    -0.387 N 
HETATM   18  H3  0Q4 A 125      -9.891  17.267  32.932  1.00 15.00     0.159 HD
BRANCH  17  19
HETATM   19  CA3 0Q4 A 125      -7.952  16.425  32.909  1.00 16.89     0.177 C 
BRANCH  19  20
HETATM   20  C3  0Q4 A 125      -7.469  16.450  31.432  1.00 15.06     0.241 C 
HETATM   21  O2  0Q4 A 125      -8.256  16.193  30.517  1.00 12.51    -0.271 OA
HETATM   22  N4  0Q4 A 125      -6.221  16.867  31.215  1.00 14.54    -0.346 N 
HETATM   23  H4  0Q4 A 125      -5.629  17.055  31.976  1.00 15.00     0.163 HD
BRANCH  22  24
HETATM   24  CA4 0Q4 A 125      -5.650  17.019  29.874  1.00 15.81     0.177 C 
BRANCH  24  25
HETATM   25  C4  0Q4 A 125      -4.168  16.656  29.738  1.00 17.52     0.241 C 
HETATM   26  O3  0Q4 A 125      -3.800  15.561  29.307  1.00 17.50    -0.271 OA
HETATM   27  N5  0Q4 A 125      -3.320  17.527  30.259  1.00 19.61    -0.346 N 
HETATM   28  H5  0Q4 A 125      -3.650  18.342  30.699  1.00 15.00     0.163 HD
BRANCH  27  29
HETATM   29  CA5 0Q4 A 125      -1.892  17.306  30.191  1.00 21.82     0.172 C 
HETATM   30  CB5 0Q4 A 125      -1.353  18.024  28.968  1.00 22.24     0.042 C 
BRANCH  29  31
HETATM   31  C5  0Q4 A 125      -1.062  17.718  31.433  1.00 24.09     0.240 C 
HETATM   32  O4  0Q4 A 125      -1.147  18.843  31.929  1.00 20.88    -0.271 OA
HETATM   33  N6  0Q4 A 125      -0.222  16.787  31.872  1.00 27.66    -0.346 N 
HETATM   34  H6  0Q4 A 125      -0.191  15.939  31.397  1.00 15.00     0.163 HD
BRANCH  33  35
HETATM   35  CA6 0Q4 A 125       0.712  16.985  32.972  1.00 31.09     0.176 C 
BRANCH  35  36
HETATM   36  C6  0Q4 A 125       2.082  16.509  32.459  1.00 33.78     0.238 C 
HETATM   37  O5  0Q4 A 125       2.476  16.826  31.298  1.00 34.60    -0.271 OA
HETATM   38  N7  0Q4 A 125       2.743  15.777  33.236  1.00 36.53    -0.368 N 
HETATM   39  H72 0Q4 A 125       2.427  15.522  34.171  1.00  0.00     0.159 HD
HETATM   40  H71 0Q4 A 125       3.651  15.461  32.896  1.00  0.00     0.159 HD
ENDBRANCH  35  36
BRANCH  35  41
HETATM   41  CB6 0Q4 A 125       0.263  16.113  34.173  1.00 32.55     0.035 C 
BRANCH  41  42
HETATM   42  CG6 0Q4 A 125       0.104  16.818  35.565  1.00 32.73     0.002 C 
BRANCH  42  43
HETATM   43  CD4 0Q4 A 125      -1.387  16.947  36.071  1.00 31.59    -0.004 C 
HETATM   44  CE  0Q4 A 125      -2.289  17.473  34.973  1.00 23.29     0.005 C 
ENDBRANCH  42  43
ENDBRANCH  41  42
ENDBRANCH  35  41
ENDBRANCH  33  35
ENDBRANCH  29  31
ENDBRANCH  27  29
ENDBRANCH  24  25
BRANCH  24  45
HETATM   45  CB4 0Q4 A 125      -5.878  18.476  29.383  1.00 17.07     0.045 C 
BRANCH  45  46
HETATM   46  CG5 0Q4 A 125      -5.697  18.748  27.902  1.00 18.50     0.116 C 
BRANCH  46  47
HETATM   47  CD3 0Q4 A 125      -6.864  18.233  27.046  1.00 26.68     0.172 C 
HETATM   48  OE1 0Q4 A 125      -7.957  18.010  27.599  1.00 29.71    -0.648 OA
HETATM   49  OE2 0Q4 A 125      -6.706  18.046  25.811  1.00 31.35    -0.648 OA
ENDBRANCH  46  47
ENDBRANCH  45  46
ENDBRANCH  24  45
ENDBRANCH  22  24
ENDBRANCH  19  20
BRANCH  19  50
HETATM   50  CB3 0Q4 A 125      -7.526  15.187  33.752  1.00 18.22     0.073 C 
BRANCH  50  51
HETATM   51  CG4 0Q4 A 125      -6.889  15.495  35.049  1.00 21.59    -0.056 A 
HETATM   52  CD1 0Q4 A 125      -5.571  15.137  35.295  1.00 22.99     0.007 A 
HETATM   53  CE1 0Q4 A 125      -4.940  15.468  36.516  1.00 24.00     0.001 A 
HETATM   54  CZ1 0Q4 A 125      -5.644  16.162  37.507  1.00 25.64     0.000 A 
HETATM   55  CE2 0Q4 A 125      -6.971  16.519  37.276  1.00 27.27     0.001 A 
HETATM   56  CD2 0Q4 A 125      -7.592  16.180  36.036  1.00 24.65     0.007 A 
ENDBRANCH  50  51
ENDBRANCH  19  50
ENDBRANCH  17  19
ENDBRANCH  15  16
BRANCH  15  57
HETATM   57  CB2 0Q4 A 125     -12.407  14.171  32.817  1.00 19.32     0.034 C 
BRANCH  57  58
HETATM   58  CG3 0Q4 A 125     -13.332  14.057  34.061  1.00 21.12    -0.020 C 
HETATM   59  CD1 0Q4 A 125     -12.837  14.875  35.254  1.00 21.22     0.009 C 
HETATM   60  CD2 0Q4 A 125     -14.743  14.481  33.699  1.00 17.47     0.009 C 
ENDBRANCH  57  58
ENDBRANCH  15  57
ENDBRANCH  13  15
ENDBRANCH  10  11
BRANCH  10  61
HETATM   61  CB1 0Q4 A 125     -14.496  16.955  29.568  1.00 19.28     0.009 C 
HETATM   62  CG1 0Q4 A 125     -13.590  16.070  28.708  1.00 20.08     0.012 C 
HETATM   63  CG2 0Q4 A 125     -15.398  16.027  30.407  1.00 19.54     0.012 C 
ENDBRANCH  10  61
ENDBRANCH   8  10
ENDBRANCH   5   6
BRANCH   5  64
HETATM   64  CB  0Q4 A 125     -11.989  21.068  27.210  1.00 21.80     0.044 C 
BRANCH  64  65
HETATM   65  CG  0Q4 A 125     -12.386  20.054  26.083  1.00 26.69     0.023 C 
BRANCH  65  66
HETATM   66  CD  0Q4 A 125     -13.879  20.110  25.601  1.00 29.76     0.138 C 
BRANCH  66  67
HETATM   67  NE  0Q4 A 125     -14.852  19.540  26.542  1.00 32.26    -0.227 N 
HETATM   68  CZ  0Q4 A 125     -15.637  20.257  27.351  1.00 34.72     0.665 C 
HETATM   69  NH1 0Q4 A 125     -15.572  21.577  27.317  1.00 35.07    -0.235 N 
HETATM   70  NH2 0Q4 A 125     -16.397  19.657  28.279  1.00 35.86    -0.235 N 
HETATM   71 HH11 0Q4 A 125     -14.944  22.033  26.688  1.00 15.00     0.174 HD
HETATM   72 HH12 0Q4 A 125     -16.156  22.124  27.919  1.00 15.00     0.174 HD
HETATM   73 HH21 0Q4 A 125     -16.388  18.663  28.377  1.00 15.00     0.174 HD
HETATM   74 HH22 0Q4 A 125     -16.977  20.215  28.876  1.00 15.00     0.174 HD
HETATM   75  HE  0Q4 A 125     -14.940  18.562  26.590  1.00 15.00     0.177 HD
ENDBRANCH  66  67
ENDBRANCH  65  66
ENDBRANCH  64  65
ENDBRANCH   5  64
ENDBRANCH   1   5
TORSDOF 29
ENDMDL
MODEL 4
REMARK VINA RESULT:      -7.4      4.280     11.083
REMARK  29 active torsions:
REMARK  status: ('A' for Active; 'I' for Inactive)
REMARK    1  A    between atoms: N_1  and  CA_2 
REMARK    2  A    between atoms: CA_2  and  C_4 
REMARK    3  A    between atoms: CA_2  and  CB_6 
REMARK       I    between atoms: C_4  and  N1_19 
REMARK    4  A    between atoms: CB_6  and  CG_9 
REMARK    5  A    between atoms: CG_9  and  CD_12 
REMARK    6  A    between atoms: CD_12  and  NE_15 
REMARK       I    between atoms: NE_15  and  CZ_16 
REMARK       I    between atoms: CZ_16  and  NH1_17 
REMARK    7  A    between atoms: N1_19  and  CA1_20 
REMARK    8  A    between atoms: CA1_20  and  C1_22 
REMARK    9  A    between atoms: CA1_20  and  CB1_24 
REMARK       I    between atoms: C1_22  and  N2_34 
REMARK   10  A    between atoms: N2_34  and  CA2_35 
REMARK   11  A    between atoms: CA2_35  and  C2_37 
REMARK   12  A    between atoms: CA2_35  and  CB2_39 
REMARK   13  A    between atoms: CB2_39  and  CG3_42 
REMARK   14  A    between atoms: N3_52  and  CA3_53 
REMARK   15  A    between atoms: CA3_53  and  C3_55 
REMARK   16  A    between atoms: CA3_53  and  CB3_57 
REMARK       I    between atoms: C3_55  and  N4_71 
REMARK   17  A    between atoms: CB3_57  and  CG4_60 
REMARK   18  A    between atoms: N4_71  and  CA4_72 
REMARK   19  A    between atoms: CA4_72  and  C4_74 
REMARK   20  A    between atoms: CA4_72  and  CB4_76 
REMARK       I    between atoms: C4_74  and  N5_85 
REMARK   21  A    between atoms: CB4_76  and  CG5_79 
REMARK   22  A    between atoms: CG5_79  and  CD3_82 
REMARK   23  A    between atoms: N5_85  and  CA5_86 
REMARK   24  A    between atoms: CA5_86  and  C5_88 
REMARK       I    between atoms: C5_88  and  N6_94 
REMARK   25  A    between atoms: N6_94  and  CA6_95 
REMARK   26  A    between atoms: CA6_95  and  C6_97 
REMARK   27  A    between atoms: CA6_95  and  CB6_99 
REMARK       I    between atoms: C6_97  and  N7_112 
REMARK   28  A    between atoms: CB6_99  and  CG6_102 
REMARK   29  A    between atoms: CG6_102  and  CD4_105 
ROOT
HETATM    1  N   0Q4 A 125     -12.666  16.582  26.410  1.00 21.27    -0.067 N 
HETATM    2  H   0Q4 A 125     -12.846  17.003  27.332  1.00 15.00     0.275 HD
HETATM    3  H2  0Q4 A 125     -13.346  16.943  25.694  1.00 15.00     0.275 HD
HETATM    4  HN3 0Q4 A 125     -12.754  15.557  26.491  1.00 15.00     0.275 HD
ENDROOT
BRANCH   1   5
HETATM    5  CA  0Q4 A 125     -11.310  16.950  25.898  1.00 21.76     0.274 C 
BRANCH   5   6
HETATM    6  C   0Q4 A 125     -10.434  15.660  25.810  1.00 21.89     0.249 C 
HETATM    7  O   0Q4 A 125     -10.953  14.536  25.947  1.00 22.48    -0.271 OA
HETATM    8  N1  0Q4 A 125      -9.135  15.829  25.514  1.00 19.10    -0.346 N 
HETATM    9  H1  0Q4 A 125      -8.743  16.724  25.425  1.00 15.00     0.163 HD
BRANCH   8  10
HETATM   10  CA1 0Q4 A 125      -8.200  14.715  25.342  1.00 18.90     0.180 C 
BRANCH  10  11
HETATM   11  C1  0Q4 A 125      -7.046  14.758  26.377  1.00 17.14     0.241 C 
HETATM   12  O1  0Q4 A 125      -6.437  13.755  26.728  1.00 18.87    -0.271 OA
HETATM   13  N2  0Q4 A 125      -6.829  15.925  26.956  1.00 17.78    -0.350 N 
HETATM   14  HN2 0Q4 A 125      -7.390  16.699  26.724  1.00 15.00     0.163 HD
BRANCH  13  15
HETATM   15  CA2 0Q4 A 125      -5.734  16.104  27.892  1.00 17.96     0.123 C 
BRANCH  15  16
HETATM   16  C2  0Q4 A 125      -6.086  16.028  29.372  1.00 17.56     0.081 C 
HETATM   17  N3  0Q4 A 125      -7.307  16.419  29.691  1.00 16.64    -0.387 N 
HETATM   18  H3  0Q4 A 125      -7.890  16.736  28.975  1.00 15.00     0.159 HD
BRANCH  17  19
HETATM   19  CA3 0Q4 A 125      -7.840  16.378  31.058  1.00 16.89     0.177 C 
BRANCH  19  20
HETATM   20  C3  0Q4 A 125      -6.710  16.948  31.960  1.00 15.06     0.241 C 
HETATM   21  O2  0Q4 A 125      -6.636  18.161  32.169  1.00 12.51    -0.271 OA
HETATM   22  N4  0Q4 A 125      -5.922  16.060  32.567  1.00 14.54    -0.346 N 
HETATM   23  H4  0Q4 A 125      -6.014  15.104  32.364  1.00 15.00     0.163 HD
BRANCH  22  24
HETATM   24  CA4 0Q4 A 125      -4.865  16.442  33.507  1.00 15.81     0.177 C 
BRANCH  24  25
HETATM   25  C4  0Q4 A 125      -3.430  16.289  32.992  1.00 17.52     0.241 C 
HETATM   26  O3  0Q4 A 125      -2.699  15.366  33.360  1.00 17.50    -0.271 OA
HETATM   27  N5  0Q4 A 125      -2.980  17.292  32.259  1.00 19.61    -0.346 N 
HETATM   28  H5  0Q4 A 125      -3.551  18.071  32.075  1.00 15.00     0.163 HD
BRANCH  27  29
HETATM   29  CA5 0Q4 A 125      -1.642  17.267  31.706  1.00 21.82     0.172 C 
HETATM   30  CB5 0Q4 A 125      -1.602  18.194  30.505  1.00 22.24     0.042 C 
BRANCH  29  31
HETATM   31  C5  0Q4 A 125      -0.483  17.628  32.669  1.00 24.09     0.240 C 
HETATM   32  O4  0Q4 A 125      -0.115  18.792  32.839  1.00 20.88    -0.271 OA
HETATM   33  N6  0Q4 A 125       0.108  16.584  33.240  1.00 27.66    -0.346 N 
HETATM   34  H6  0Q4 A 125      -0.221  15.696  33.019  1.00 15.00     0.163 HD
BRANCH  33  35
HETATM   35  CA6 0Q4 A 125       1.270  16.682  34.114  1.00 31.09     0.176 C 
BRANCH  35  36
HETATM   36  C6  0Q4 A 125       2.501  16.580  33.198  1.00 33.78     0.238 C 
HETATM   37  O5  0Q4 A 125       2.993  17.619  32.668  1.00 34.60    -0.271 OA
HETATM   38  N7  0Q4 A 125       2.947  15.424  32.991  1.00 36.53    -0.368 N 
HETATM   39  H72 0Q4 A 125       2.551  14.586  33.418  1.00  0.00     0.159 HD
HETATM   40  H71 0Q4 A 125       3.763  15.356  32.384  1.00  0.00     0.159 HD
ENDBRANCH  35  36
BRANCH  35  41
HETATM   41  CB6 0Q4 A 125       1.249  15.492  35.108  1.00 32.55     0.035 C 
BRANCH  41  42
HETATM   42  CG6 0Q4 A 125       0.960  15.811  36.617  1.00 32.73     0.002 C 
BRANCH  42  43
HETATM   43  CD4 0Q4 A 125       0.092  17.107  36.862  1.00 31.59    -0.004 C 
HETATM   44  CE  0Q4 A 125      -1.387  16.794  36.777  1.00 23.29     0.005 C 
ENDBRANCH  42  43
ENDBRANCH  41  42
ENDBRANCH  35  41
ENDBRANCH  33  35
ENDBRANCH  29  31
ENDBRANCH  27  29
ENDBRANCH  24  25
BRANCH  24  45
HETATM   45  CB4 0Q4 A 125      -5.036  15.634  34.824  1.00 17.07     0.045 C 
BRANCH  45  46
HETATM   46  CG5 0Q4 A 125      -6.427  15.566  35.424  1.00 18.50     0.116 C 
BRANCH  46  47
HETATM   47  CD3 0Q4 A 125      -6.819  16.842  36.185  1.00 26.68     0.172 C 
HETATM   48  OE1 0Q4 A 125      -7.073  17.871  35.532  1.00 29.71    -0.648 OA
HETATM   49  OE2 0Q4 A 125      -6.883  16.833  37.442  1.00 31.35    -0.648 OA
ENDBRANCH  46  47
ENDBRANCH  45  46
ENDBRANCH  24  45
ENDBRANCH  22  24
ENDBRANCH  19  20
BRANCH  19  50
HETATM   50  CB3 0Q4 A 125      -8.270  14.907  31.338  1.00 18.22     0.073 C 
BRANCH  50  51
HETATM   51  CG4 0Q4 A 125      -9.492  14.751  32.155  1.00 21.59    -0.056 A 
HETATM   52  CD1 0Q4 A 125     -10.579  15.594  31.970  1.00 22.99     0.007 A 
HETATM   53  CE1 0Q4 A 125     -11.769  15.423  32.715  1.00 24.00     0.001 A 
HETATM   54  CZ1 0Q4 A 125     -11.866  14.399  33.663  1.00 25.64     0.000 A 
HETATM   55  CE2 0Q4 A 125     -10.777  13.552  33.865  1.00 27.27     0.001 A 
HETATM   56  CD2 0Q4 A 125      -9.585  13.736  33.101  1.00 24.65     0.007 A 
ENDBRANCH  50  51
ENDBRANCH  19  50
ENDBRANCH  17  19
ENDBRANCH  15  16
BRANCH  15  57
HETATM   57  CB2 0Q4 A 125      -4.959  17.398  27.543  1.00 19.32     0.034 C 
BRANCH  57  58
HETATM   58  CG3 0Q4 A 125      -5.845  18.636  27.226  1.00 21.12    -0.020 C 
HETATM   59  CD1 0Q4 A 125      -5.973  19.599  28.406  1.00 21.22     0.009 C 
HETATM   60  CD2 0Q4 A 125      -5.293  19.373  26.019  1.00 17.47     0.009 C 
ENDBRANCH  57  58
ENDBRANCH  15  57
ENDBRANCH  13  15
ENDBRANCH  10  11
BRANCH  10  61
HETATM   61  CB1 0Q4 A 125      -7.704  14.638  23.807  1.00 19.28     0.009 C 
HETATM   62  CG1 0Q4 A 125      -6.536  15.588  23.538  1.00 20.08     0.012 C 
HETATM   63  CG2 0Q4 A 125      -7.238  13.210  23.457  1.00 19.54     0.012 C 
ENDBRANCH  10  61
ENDBRANCH   8  10
ENDBRANCH   5   6
BRANCH   5  64
HETATM   64  CB  0Q4 A 125     -10.704  18.022  26.813  1.00 21.80     0.044 C 
BRANCH  64  65
HETATM   65  CG  0Q4 A 125     -11.460  19.393  26.895  1.00 26.69     0.023 C 
BRANCH  65  66
HETATM   66  CD  0Q4 A 125     -12.457  19.559  28.096  1.00 29.76     0.138 C 
BRANCH  66  67
HETATM   67  NE  0Q4 A 125     -12.034  20.523  29.120  1.00 32.26    -0.227 N 
HETATM   68  CZ  0Q4 A 125     -12.778  20.899  30.163  1.00 34.72     0.665 C 
HETATM   69  NH1 0Q4 A 125     -13.981  20.374  30.326  1.00 35.07    -0.235 N 
HETATM   70  NH2 0Q4 A 125     -12.374  21.889  30.974  1.00 35.86    -0.235 N 
HETATM   71 HH11 0Q4 A 125     -14.326  19.699  29.676  1.00 15.00     0.174 HD
HETATM   72 HH12 0Q4 A 125     -14.547  20.649  31.105  1.00 15.00     0.174 HD
HETATM   73 HH21 0Q4 A 125     -11.508  22.357  30.809  1.00 15.00     0.174 HD
HETATM   74 HH22 0Q4 A 125     -12.950  22.155  31.749  1.00 15.00     0.174 HD
HETATM   75  HE  0Q4 A 125     -11.142  20.928  29.041  1.00 15.00     0.177 HD
ENDBRANCH  66  67
ENDBRANCH  65  66
ENDBRANCH  64  65
ENDBRANCH   5  64
ENDBRANCH   1   5
TORSDOF 29
ENDMDL
MODEL 5
REMARK VINA RESULT:      -7.4      4.890     10.561
REMARK  29 active torsions:
REMARK  status: ('A' for Active; 'I' for Inactive)
REMARK    1  A    between atoms: N_1  and  CA_2 
REMARK    2  A    between atoms: CA_2  and  C_4 
REMARK    3  A    between atoms: CA_2  and  CB_6 
REMARK       I    between atoms: C_4  and  N1_19 
REMARK    4  A    between atoms: CB_6  and  CG_9 
REMARK    5  A    between atoms: CG_9  and  CD_12 
REMARK    6  A    between atoms: CD_12  and  NE_15 
REMARK       I    between atoms: NE_15  and  CZ_16 
REMARK       I    between atoms: CZ_16  and  NH1_17 
REMARK    7  A    between atoms: N1_19  and  CA1_20 
REMARK    8  A    between atoms: CA1_20  and  C1_22 
REMARK    9  A    between atoms: CA1_20  and  CB1_24 
REMARK       I    between atoms: C1_22  and  N2_34 
REMARK   10  A    between atoms: N2_34  and  CA2_35 
REMARK   11  A    between atoms: CA2_35  and  C2_37 
REMARK   12  A    between atoms: CA2_35  and  CB2_39 
REMARK   13  A    between atoms: CB2_39  and  CG3_42 
REMARK   14  A    between atoms: N3_52  and  CA3_53 
REMARK   15  A    between atoms: CA3_53  and  C3_55 
REMARK   16  A    between atoms: CA3_53  and  CB3_57 
REMARK       I    between atoms: C3_55  and  N4_71 
REMARK   17  A    between atoms: CB3_57  and  CG4_60 
REMARK   18  A    between atoms: N4_71  and  CA4_72 
REMARK   19  A    between atoms: CA4_72  and  C4_74 
REMARK   20  A    between atoms: CA4_72  and  CB4_76 
REMARK       I    between atoms: C4_74  and  N5_85 
REMARK   21  A    between atoms: CB4_76  and  CG5_79 
REMARK   22  A    between atoms: CG5_79  and  CD3_82 
REMARK   23  A    between atoms: N5_85  and  CA5_86 
REMARK   24  A    between atoms: CA5_86  and  C5_88 
REMARK       I    between atoms: C5_88  and  N6_94 
REMARK   25  A    between atoms: N6_94  and  CA6_95 
REMARK   26  A    between atoms: CA6_95  and  C6_97 
REMARK   27  A    between atoms: CA6_95  and  CB6_99 
REMARK       I    between atoms: C6_97  and  N7_112 
REMARK   28  A    between atoms: CB6_99  and  CG6_102 
REMARK   29  A    between atoms: CG6_102  and  CD4_105 
ROOT
HETATM    1  N   0Q4 A 125      -1.950  18.579  33.891  1.00 21.27    -0.067 N 
HETATM    2  H   0Q4 A 125      -2.675  18.470  34.614  1.00 15.00     0.275 HD
HETATM    3  H2  0Q4 A 125      -0.993  18.616  34.323  1.00 15.00     0.275 HD
HETATM    4  HN3 0Q4 A 125      -2.132  19.451  33.368  1.00 15.00     0.275 HD
ENDROOT
BRANCH   1   5
HETATM    5  CA  0Q4 A 125      -1.928  17.409  32.961  1.00 21.76     0.274 C 
BRANCH   5   6
HETATM    6  C   0Q4 A 125      -3.215  16.554  33.190  1.00 21.89     0.249 C 
HETATM    7  O   0Q4 A 125      -3.461  15.578  32.456  1.00 22.48    -0.271 OA
HETATM    8  N1  0Q4 A 125      -3.981  16.883  34.243  1.00 19.10    -0.346 N 
HETATM    9  H1  0Q4 A 125      -3.777  17.665  34.799  1.00 15.00     0.163 HD
BRANCH   8  10
HETATM   10  CA1 0Q4 A 125      -5.187  16.143  34.620  1.00 18.90     0.180 C 
BRANCH  10  11
HETATM   11  C1  0Q4 A 125      -6.339  16.349  33.603  1.00 17.14     0.241 C 
HETATM   12  O1  0Q4 A 125      -6.781  17.456  33.323  1.00 18.87    -0.271 OA
HETATM   13  N2  0Q4 A 125      -6.905  15.251  33.137  1.00 17.78    -0.350 N 
HETATM   14  HN2 0Q4 A 125      -6.592  14.371  33.444  1.00 15.00     0.163 HD
BRANCH  13  15
HETATM   15  CA2 0Q4 A 125      -7.948  15.315  32.130  1.00 17.96     0.123 C 
BRANCH  15  16
HETATM   16  C2  0Q4 A 125      -7.555  15.906  30.782  1.00 17.56     0.081 C 
HETATM   17  N3  0Q4 A 125      -6.584  15.279  30.143  1.00 16.64    -0.387 N 
HETATM   18  H3  0Q4 A 125      -6.183  14.498  30.570  1.00 15.00     0.159 HD
BRANCH  17  19
HETATM   19  CA3 0Q4 A 125      -6.099  15.675  28.816  1.00 16.89     0.177 C 
BRANCH  19  20
HETATM   20  C3  0Q4 A 125      -7.167  15.157  27.813  1.00 15.06     0.241 C 
HETATM   21  O2  0Q4 A 125      -8.243  15.747  27.693  1.00 12.51    -0.271 OA
HETATM   22  N4  0Q4 A 125      -6.812  14.135  27.033  1.00 14.54    -0.346 N 
HETATM   23  H4  0Q4 A 125      -5.946  13.693  27.170  1.00 15.00     0.163 HD
BRANCH  22  24
HETATM   24  CA4 0Q4 A 125      -7.681  13.588  25.988  1.00 15.81     0.177 C 
BRANCH  24  25
HETATM   25  C4  0Q4 A 125      -7.677  12.063  25.851  1.00 17.52     0.241 C 
HETATM   26  O3  0Q4 A 125      -8.706  11.425  25.618  1.00 17.50    -0.271 OA
HETATM   27  N5  0Q4 A 125      -6.536  11.468  26.155  1.00 19.61    -0.346 N 
HETATM   28  H5  0Q4 A 125      -5.761  11.997  26.448  1.00 15.00     0.163 HD
BRANCH  27  29
HETATM   29  CA5 0Q4 A 125      -6.398  10.031  26.061  1.00 21.82     0.172 C 
HETATM   30  CB5 0Q4 A 125      -5.829   9.692  24.696  1.00 22.24     0.042 C 
BRANCH  29  31
HETATM   31  C5  0Q4 A 125      -5.548   9.338  27.156  1.00 24.09     0.240 C 
HETATM   32  O4  0Q4 A 125      -5.454   9.797  28.296  1.00 20.88    -0.271 OA
HETATM   33  N6  0Q4 A 125      -4.895   8.255  26.748  1.00 27.66    -0.346 N 
HETATM   34  H6  0Q4 A 125      -4.995   7.984  25.819  1.00 15.00     0.163 HD
BRANCH  33  35
HETATM   35  CA6 0Q4 A 125      -3.974   7.496  27.583  1.00 31.09     0.176 C 
BRANCH  35  36
HETATM   36  C6  0Q4 A 125      -2.561   7.951  27.182  1.00 33.78     0.238 C 
HETATM   37  O5  0Q4 A 125      -1.852   7.236  26.414  1.00 34.60    -0.271 OA
HETATM   38  N7  0Q4 A 125      -2.161   9.031  27.683  1.00 36.53    -0.368 N 
HETATM   39  H72 0Q4 A 125      -2.732   9.607  28.301  1.00  0.00     0.159 HD
HETATM   40  H71 0Q4 A 125      -1.224   9.332  27.416  1.00  0.00     0.159 HD
ENDBRANCH  35  36
BRANCH  35  41
HETATM   41  CB6 0Q4 A 125      -4.152   5.986  27.277  1.00 32.55     0.035 C 
BRANCH  41  42
HETATM   42  CG6 0Q4 A 125      -5.498   5.309  27.714  1.00 32.73     0.002 C 
BRANCH  42  43
HETATM   43  CD4 0Q4 A 125      -5.817   5.412  29.257  1.00 31.59    -0.004 C 
HETATM   44  CE  0Q4 A 125      -6.759   6.563  29.542  1.00 23.29     0.005 C 
ENDBRANCH  42  43
ENDBRANCH  41  42
ENDBRANCH  35  41
ENDBRANCH  33  35
ENDBRANCH  29  31
ENDBRANCH  27  29
ENDBRANCH  24  25
BRANCH  24  45
HETATM   45  CB4 0Q4 A 125      -7.310  14.235  24.623  1.00 17.07     0.045 C 
BRANCH  45  46
HETATM   46  CG5 0Q4 A 125      -6.104  15.154  24.594  1.00 18.50     0.116 C 
BRANCH  46  47
HETATM   47  CD3 0Q4 A 125      -6.470  16.623  24.333  1.00 26.68     0.172 C 
HETATM   48  OE1 0Q4 A 125      -6.294  17.453  25.245  1.00 29.71    -0.648 OA
HETATM   49  OE2 0Q4 A 125      -6.934  16.969  23.215  1.00 31.35    -0.648 OA
ENDBRANCH  46  47
ENDBRANCH  45  46
ENDBRANCH  24  45
ENDBRANCH  22  24
ENDBRANCH  19  20
BRANCH  19  50
HETATM   50  CB3 0Q4 A 125      -4.664  15.088  28.658  1.00 18.22     0.073 C 
BRANCH  50  51
HETATM   51  CG4 0Q4 A 125      -3.562  16.039  28.913  1.00 21.59    -0.056 A 
HETATM   52  CD1 0Q4 A 125      -2.247  15.599  28.979  1.00 22.99     0.007 A 
HETATM   53  CE1 0Q4 A 125      -1.182  16.509  29.177  1.00 24.00     0.001 A 
HETATM   54  CZ1 0Q4 A 125      -1.441  17.876  29.318  1.00 25.64     0.000 A 
HETATM   55  CE2 0Q4 A 125      -2.758  18.330  29.264  1.00 27.27     0.001 A 
HETATM   56  CD2 0Q4 A 125      -3.821  17.398  29.059  1.00 24.65     0.007 A 
ENDBRANCH  50  51
ENDBRANCH  19  50
ENDBRANCH  17  19
ENDBRANCH  15  16
BRANCH  15  57
HETATM   57  CB2 0Q4 A 125      -9.202  16.001  32.724  1.00 19.32     0.034 C 
BRANCH  57  58
HETATM   58  CG3 0Q4 A 125     -10.485  15.123  32.756  1.00 21.12    -0.020 C 
HETATM   59  CD1 0Q4 A 125     -11.040  14.823  31.364  1.00 21.22     0.009 C 
HETATM   60  CD2 0Q4 A 125     -10.207  13.824  33.489  1.00 17.47     0.009 C 
ENDBRANCH  57  58
ENDBRANCH  15  57
ENDBRANCH  13  15
ENDBRANCH  10  11
BRANCH  10  61
HETATM   61  CB1 0Q4 A 125      -5.589  16.477  36.148  1.00 19.28     0.009 C 
HETATM   62  CG1 0Q4 A 125      -7.023  16.047  36.465  1.00 20.08     0.012 C 
HETATM   63  CG2 0Q4 A 125      -4.652  15.745  37.130  1.00 19.54     0.012 C 
ENDBRANCH  10  61
ENDBRANCH   8  10
ENDBRANCH   5   6
BRANCH   5  64
HETATM   64  CB  0Q4 A 125      -0.635  16.615  33.187  1.00 21.80     0.044 C 
BRANCH  64  65
HETATM   65  CG  0Q4 A 125       0.622  17.057  32.361  1.00 26.69     0.023 C 
BRANCH  65  66
HETATM   66  CD  0Q4 A 125       1.888  17.460  33.197  1.00 29.76     0.138 C 
BRANCH  66  67
HETATM   67  NE  0Q4 A 125       1.598  18.080  34.497  1.00 32.26    -0.227 N 
HETATM   68  CZ  0Q4 A 125       1.868  17.525  35.681  1.00 34.72     0.665 C 
HETATM   69  NH1 0Q4 A 125       2.454  16.340  35.724  1.00 35.07    -0.235 N 
HETATM   70  NH2 0Q4 A 125       1.444  18.093  36.819  1.00 35.86    -0.235 N 
HETATM   71 HH11 0Q4 A 125       2.696  15.868  34.878  1.00 15.00     0.174 HD
HETATM   72 HH12 0Q4 A 125       2.661  15.915  36.607  1.00 15.00     0.174 HD
HETATM   73 HH21 0Q4 A 125       0.920  18.943  36.797  1.00 15.00     0.174 HD
HETATM   74 HH22 0Q4 A 125       1.657  17.658  37.696  1.00 15.00     0.174 HD
HETATM   75  HE  0Q4 A 125       1.172  18.966  34.508  1.00 15.00     0.177 HD
ENDBRANCH  66  67
ENDBRANCH  65  66
ENDBRANCH  64  65
ENDBRANCH   5  64
ENDBRANCH   1   5
TORSDOF 29
ENDMDL
MODEL 6
REMARK VINA RESULT:      -7.3      3.007     11.490
REMARK  29 active torsions:
REMARK  status: ('A' for Active; 'I' for Inactive)
REMARK    1  A    between atoms: N_1  and  CA_2 
REMARK    2  A    between atoms: CA_2  and  C_4 
REMARK    3  A    between atoms: CA_2  and  CB_6 
REMARK       I    between atoms: C_4  and  N1_19 
REMARK    4  A    between atoms: CB_6  and  CG_9 
REMARK    5  A    between atoms: CG_9  and  CD_12 
REMARK    6  A    between atoms: CD_12  and  NE_15 
REMARK       I    between atoms: NE_15  and  CZ_16 
REMARK       I    between atoms: CZ_16  and  NH1_17 
REMARK    7  A    between atoms: N1_19  and  CA1_20 
REMARK    8  A    between atoms: CA1_20  and  C1_22 
REMARK    9  A    between atoms: CA1_20  and  CB1_24 
REMARK       I    between atoms: C1_22  and  N2_34 
REMARK   10  A    between atoms: N2_34  and  CA2_35 
REMARK   11  A    between atoms: CA2_35  and  C2_37 
REMARK   12  A    between atoms: CA2_35  and  CB2_39 
REMARK   13  A    between atoms: CB2_39  and  CG3_42 
REMARK   14  A    between atoms: N3_52  and  CA3_53 
REMARK   15  A    between atoms: CA3_53  and  C3_55 
REMARK   16  A    between atoms: CA3_53  and  CB3_57 
REMARK       I    between atoms: C3_55  and  N4_71 
REMARK   17  A    between atoms: CB3_57  and  CG4_60 
REMARK   18  A    between atoms: N4_71  and  CA4_72 
REMARK   19  A    between atoms: CA4_72  and  C4_74 
REMARK   20  A    between atoms: CA4_72  and  CB4_76 
REMARK       I    between atoms: C4_74  and  N5_85 
REMARK   21  A    between atoms: CB4_76  and  CG5_79 
REMARK   22  A    between atoms: CG5_79  and  CD3_82 
REMARK   23  A    between atoms: N5_85  and  CA5_86 
REMARK   24  A    between atoms: CA5_86  and  C5_88 
REMARK       I    between atoms: C5_88  and  N6_94 
REMARK   25  A    between atoms: N6_94  and  CA6_95 
REMARK   26  A    between atoms: CA6_95  and  C6_97 
REMARK   27  A    between atoms: CA6_95  and  CB6_99 
REMARK       I    between atoms: C6_97  and  N7_112 
REMARK   28  A    between atoms: CB6_99  and  CG6_102 
REMARK   29  A    between atoms: CG6_102  and  CD4_105 
ROOT
HETATM    1  N   0Q4 A 125      -9.618  18.030  28.255  1.00 21.27    -0.067 N 
HETATM    2  H   0Q4 A 125      -8.836  17.752  27.645  1.00 15.00     0.275 HD
HETATM    3  H2  0Q4 A 125      -9.393  18.919  28.769  1.00 15.00     0.275 HD
HETATM    4  HN3 0Q4 A 125      -9.797  17.271  28.931  1.00 15.00     0.275 HD
ENDROOT
BRANCH   1   5
HETATM    5  CA  0Q4 A 125     -10.851  18.324  27.462  1.00 21.76     0.274 C 
BRANCH   5   6
HETATM    6  C   0Q4 A 125     -12.058  18.483  28.441  1.00 21.89     0.249 C 
HETATM    7  O   0Q4 A 125     -12.794  19.485  28.374  1.00 22.48    -0.271 OA
HETATM    8  N1  0Q4 A 125     -12.288  17.466  29.289  1.00 19.10    -0.346 N 
HETATM    9  H1  0Q4 A 125     -11.686  16.693  29.335  1.00 15.00     0.163 HD
BRANCH   8  10
HETATM   10  CA1 0Q4 A 125     -13.412  17.443  30.226  1.00 18.90     0.180 C 
BRANCH  10  11
HETATM   11  C1  0Q4 A 125     -12.974  17.015  31.651  1.00 17.14     0.241 C 
HETATM   12  O1  0Q4 A 125     -13.427  17.532  32.664  1.00 18.87    -0.271 OA
HETATM   13  N2  0Q4 A 125     -11.990  16.135  31.715  1.00 17.78    -0.350 N 
HETATM   14  HN2 0Q4 A 125     -11.579  15.799  30.887  1.00 15.00     0.163 HD
BRANCH  13  15
HETATM   15  CA2 0Q4 A 125     -11.539  15.609  32.990  1.00 17.96     0.123 C 
BRANCH  15  16
HETATM   16  C2  0Q4 A 125     -10.039  15.388  33.141  1.00 17.56     0.081 C 
HETATM   17  N3  0Q4 A 125      -9.273  16.415  32.819  1.00 16.64    -0.387 N 
HETATM   18  H3  0Q4 A 125      -9.708  17.230  32.502  1.00 15.00     0.159 HD
BRANCH  17  19
HETATM   19  CA3 0Q4 A 125      -7.811  16.405  32.938  1.00 16.89     0.177 C 
BRANCH  19  20
HETATM   20  C3  0Q4 A 125      -7.278  16.361  31.479  1.00 15.06     0.241 C 
HETATM   21  O2  0Q4 A 125      -8.059  16.200  30.537  1.00 12.51    -0.271 OA
HETATM   22  N4  0Q4 A 125      -5.980  16.617  31.306  1.00 14.54    -0.346 N 
HETATM   23  H4  0Q4 A 125      -5.396  16.732  32.086  1.00 15.00     0.163 HD
BRANCH  22  24
HETATM   24  CA4 0Q4 A 125      -5.349  16.688  29.985  1.00 15.81     0.177 C 
BRANCH  24  25
HETATM   25  C4  0Q4 A 125      -3.856  16.349  29.943  1.00 17.52     0.241 C 
HETATM   26  O3  0Q4 A 125      -3.424  15.374  29.324  1.00 17.50    -0.271 OA
HETATM   27  N5  0Q4 A 125      -3.087  17.072  30.740  1.00 19.61    -0.346 N 
HETATM   28  H5  0Q4 A 125      -3.478  17.771  31.309  1.00 15.00     0.163 HD
BRANCH  27  29
HETATM   29  CA5 0Q4 A 125      -1.657  16.856  30.789  1.00 21.82     0.172 C 
HETATM   30  CB5 0Q4 A 125      -0.986  17.879  29.892  1.00 22.24     0.042 C 
BRANCH  29  31
HETATM   31  C5  0Q4 A 125      -0.994  16.891  32.189  1.00 24.09     0.240 C 
HETATM   32  O4  0Q4 A 125      -1.637  17.150  33.208  1.00 20.88    -0.271 OA
HETATM   33  N6  0Q4 A 125       0.318  16.678  32.186  1.00 27.66    -0.346 N 
HETATM   34  H6  0Q4 A 125       0.753  16.520  31.331  1.00 15.00     0.163 HD
BRANCH  33  35
HETATM   35  CA6 0Q4 A 125       1.157  16.747  33.375  1.00 31.09     0.176 C 
BRANCH  35  36
HETATM   36  C6  0Q4 A 125       2.609  16.799  32.870  1.00 33.78     0.238 C 
HETATM   37  O5  0Q4 A 125       2.997  16.012  31.957  1.00 34.60    -0.271 OA
HETATM   38  N7  0Q4 A 125       3.365  17.628  33.434  1.00 36.53    -0.368 N 
HETATM   39  H72 0Q4 A 125       3.053  18.262  34.169  1.00  0.00     0.159 HD
HETATM   40  H71 0Q4 A 125       4.328  17.662  33.099  1.00  0.00     0.159 HD
ENDBRANCH  35  36
BRANCH  35  41
HETATM   41  CB6 0Q4 A 125       0.935  15.465  34.218  1.00 32.55     0.035 C 
BRANCH  41  42
HETATM   42  CG6 0Q4 A 125       1.096  15.580  35.775  1.00 32.73     0.002 C 
BRANCH  42  43
HETATM   43  CD4 0Q4 A 125       0.491  16.897  36.404  1.00 31.59    -0.004 C 
HETATM   44  CE  0Q4 A 125      -0.940  16.678  36.849  1.00 23.29     0.005 C 
ENDBRANCH  42  43
ENDBRANCH  41  42
ENDBRANCH  35  41
ENDBRANCH  33  35
ENDBRANCH  29  31
ENDBRANCH  27  29
ENDBRANCH  24  25
BRANCH  24  45
HETATM   45  CB4 0Q4 A 125      -5.580  18.103  29.383  1.00 17.07     0.045 C 
BRANCH  45  46
HETATM   46  CG5 0Q4 A 125      -4.898  18.419  28.067  1.00 18.50     0.116 C 
BRANCH  46  47
HETATM   47  CD3 0Q4 A 125      -5.885  18.597  26.903  1.00 26.68     0.172 C 
HETATM   48  OE1 0Q4 A 125      -5.473  19.103  25.843  1.00 29.71    -0.648 OA
HETATM   49  OE2 0Q4 A 125      -7.083  18.231  27.030  1.00 31.35    -0.648 OA
ENDBRANCH  46  47
ENDBRANCH  45  46
ENDBRANCH  24  45
ENDBRANCH  22  24
ENDBRANCH  19  20
BRANCH  19  50
HETATM   50  CB3 0Q4 A 125      -7.432  15.197  33.846  1.00 18.22     0.073 C 
BRANCH  50  51
HETATM   51  CG4 0Q4 A 125      -6.778  15.549  35.124  1.00 21.59    -0.056 A 
HETATM   52  CD1 0Q4 A 125      -7.518  16.056  36.183  1.00 22.99     0.007 A 
HETATM   53  CE1 0Q4 A 125      -6.908  16.352  37.423  1.00 24.00     0.001 A 
HETATM   54  CZ1 0Q4 A 125      -5.536  16.145  37.601  1.00 25.64     0.000 A 
HETATM   55  CE2 0Q4 A 125      -4.779  15.646  36.541  1.00 27.27     0.001 A 
HETATM   56  CD2 0Q4 A 125      -5.412  15.348  35.297  1.00 24.65     0.007 A 
ENDBRANCH  50  51
ENDBRANCH  19  50
ENDBRANCH  17  19
ENDBRANCH  15  16
BRANCH  15  57
HETATM   57  CB2 0Q4 A 125     -12.354  14.342  33.347  1.00 19.32     0.034 C 
BRANCH  57  58
HETATM   58  CG3 0Q4 A 125     -13.193  14.440  34.652  1.00 21.12    -0.020 C 
HETATM   59  CD1 0Q4 A 125     -14.700  14.423  34.397  1.00 21.22     0.009 C 
HETATM   60  CD2 0Q4 A 125     -12.819  13.313  35.595  1.00 17.47     0.009 C 
ENDBRANCH  57  58
ENDBRANCH  15  57
ENDBRANCH  13  15
ENDBRANCH  10  11
BRANCH  10  61
HETATM   61  CB1 0Q4 A 125     -14.625  16.566  29.619  1.00 19.28     0.009 C 
HETATM   62  CG1 0Q4 A 125     -14.882  15.303  30.444  1.00 20.08     0.012 C 
HETATM   63  CG2 0Q4 A 125     -15.931  17.385  29.596  1.00 19.54     0.012 C 
ENDBRANCH  10  61
ENDBRANCH   8  10
ENDBRANCH   5   6
BRANCH   5  64
HETATM   64  CB  0Q4 A 125     -11.060  17.207  26.431  1.00 21.80     0.044 C 
BRANCH  64  65
HETATM   65  CG  0Q4 A 125      -9.979  17.070  25.305  1.00 26.69     0.023 C 
BRANCH  65  66
HETATM   66  CD  0Q4 A 125      -9.214  15.701  25.248  1.00 29.76     0.138 C 
BRANCH  66  67
HETATM   67  NE  0Q4 A 125      -7.865  15.723  25.829  1.00 32.26    -0.227 N 
HETATM   68  CZ  0Q4 A 125      -7.240  14.660  26.341  1.00 34.72     0.665 C 
HETATM   69  NH1 0Q4 A 125      -7.842  13.483  26.324  1.00 35.07    -0.235 N 
HETATM   70  NH2 0Q4 A 125      -6.067  14.793  26.979  1.00 35.86    -0.235 N 
HETATM   71 HH11 0Q4 A 125      -8.754  13.390  25.928  1.00 15.00     0.174 HD
HETATM   72 HH12 0Q4 A 125      -7.382  12.679  26.705  1.00 15.00     0.174 HD
HETATM   73 HH21 0Q4 A 125      -5.644  15.692  27.078  1.00 15.00     0.174 HD
HETATM   74 HH22 0Q4 A 125      -5.618  13.982  27.356  1.00 15.00     0.174 HD
HETATM   75  HE  0Q4 A 125      -7.379  16.577  25.850  1.00 15.00     0.177 HD
ENDBRANCH  66  67
ENDBRANCH  65  66
ENDBRANCH  64  65
ENDBRANCH   5  64
ENDBRANCH   1   5
TORSDOF 29
ENDMDL
MODEL 7
REMARK VINA RESULT:      -7.3      3.213     12.354
REMARK  29 active torsions:
REMARK  status: ('A' for Active; 'I' for Inactive)
REMARK    1  A    between atoms: N_1  and  CA_2 
REMARK    2  A    between atoms: CA_2  and  C_4 
REMARK    3  A    between atoms: CA_2  and  CB_6 
REMARK       I    between atoms: C_4  and  N1_19 
REMARK    4  A    between atoms: CB_6  and  CG_9 
REMARK    5  A    between atoms: CG_9  and  CD_12 
REMARK    6  A    between atoms: CD_12  and  NE_15 
REMARK       I    between atoms: NE_15  and  CZ_16 
REMARK       I    between atoms: CZ_16  and  NH1_17 
REMARK    7  A    between atoms: N1_19  and  CA1_20 
REMARK    8  A    between atoms: CA1_20  and  C1_22 
REMARK    9  A    between atoms: CA1_20  and  CB1_24 
REMARK       I    between atoms: C1_22  and  N2_34 
REMARK   10  A    between atoms: N2_34  and  CA2_35 
REMARK   11  A    between atoms: CA2_35  and  C2_37 
REMARK   12  A    between atoms: CA2_35  and  CB2_39 
REMARK   13  A    between atoms: CB2_39  and  CG3_42 
REMARK   14  A    between atoms: N3_52  and  CA3_53 
REMARK   15  A    between atoms: CA3_53  and  C3_55 
REMARK   16  A    between atoms: CA3_53  and  CB3_57 
REMARK       I    between atoms: C3_55  and  N4_71 
REMARK   17  A    between atoms: CB3_57  and  CG4_60 
REMARK   18  A    between atoms: N4_71  and  CA4_72 
REMARK   19  A    between atoms: CA4_72  and  C4_74 
REMARK   20  A    between atoms: CA4_72  and  CB4_76 
REMARK       I    between atoms: C4_74  and  N5_85 
REMARK   21  A    between atoms: CB4_76  and  CG5_79 
REMARK   22  A    between atoms: CG5_79  and  CD3_82 
REMARK   23  A    between atoms: N5_85  and  CA5_86 
REMARK   24  A    between atoms: CA5_86  and  C5_88 
REMARK       I    between atoms: C5_88  and  N6_94 
REMARK   25  A    between atoms: N6_94  and  CA6_95 
REMARK   26  A    between atoms: CA6_95  and  C6_97 
REMARK   27  A    between atoms: CA6_95  and  CB6_99 
REMARK       I    between atoms: C6_97  and  N7_112 
REMARK   28  A    between atoms: CB6_99  and  CG6_102 
REMARK   29  A    between atoms: CG6_102  and  CD4_105 
ROOT
HETATM    1  N   0Q4 A 125     -12.048  19.452  28.919  1.00 21.27    -0.067 N 
HETATM    2  H   0Q4 A 125     -11.678  18.862  29.677  1.00 15.00     0.275 HD
HETATM    3  H2  0Q4 A 125     -12.847  18.976  28.429  1.00 15.00     0.275 HD
HETATM    4  HN3 0Q4 A 125     -11.289  19.642  28.246  1.00 15.00     0.275 HD
ENDROOT
BRANCH   1   5
HETATM    5  CA  0Q4 A 125     -12.607  20.734  29.449  1.00 21.76     0.274 C 
BRANCH   5   6
HETATM    6  C   0Q4 A 125     -13.025  20.527  30.940  1.00 21.89     0.249 C 
HETATM    7  O   0Q4 A 125     -13.320  21.505  31.652  1.00 22.48    -0.271 OA
HETATM    8  N1  0Q4 A 125     -13.114  19.259  31.374  1.00 19.10    -0.346 N 
HETATM    9  H1  0Q4 A 125     -12.863  18.504  30.800  1.00 15.00     0.163 HD
BRANCH   8  10
HETATM   10  CA1 0Q4 A 125     -13.546  18.902  32.726  1.00 18.90     0.180 C 
BRANCH  10  11
HETATM   11  C1  0Q4 A 125     -13.127  17.460  33.110  1.00 17.14     0.241 C 
HETATM   12  O1  0Q4 A 125     -13.546  16.896  34.113  1.00 18.87    -0.271 OA
HETATM   13  N2  0Q4 A 125     -12.194  16.906  32.356  1.00 17.78    -0.350 N 
HETATM   14  HN2 0Q4 A 125     -11.807  17.412  31.606  1.00 15.00     0.163 HD
BRANCH  13  15
HETATM   15  CA2 0Q4 A 125     -11.768  15.537  32.576  1.00 17.96     0.123 C 
BRANCH  15  16
HETATM   16  C2  0Q4 A 125     -10.329  15.339  33.035  1.00 17.56     0.081 C 
HETATM   17  N3  0Q4 A 125      -9.491  16.312  32.726  1.00 16.64    -0.387 N 
HETATM   18  H3  0Q4 A 125      -9.837  17.075  32.225  1.00 15.00     0.159 HD
BRANCH  17  19
HETATM   19  CA3 0Q4 A 125      -8.077  16.319  33.118  1.00 16.89     0.177 C 
BRANCH  19  20
HETATM   20  C3  0Q4 A 125      -7.279  16.169  31.792  1.00 15.06     0.241 C 
HETATM   21  O2  0Q4 A 125      -7.429  15.167  31.089  1.00 12.51    -0.271 OA
HETATM   22  N4  0Q4 A 125      -6.536  17.210  31.418  1.00 14.54    -0.346 N 
HETATM   23  H4  0Q4 A 125      -6.442  17.984  32.014  1.00 15.00     0.163 HD
BRANCH  22  24
HETATM   24  CA4 0Q4 A 125      -5.791  17.248  30.156  1.00 15.81     0.177 C 
BRANCH  24  25
HETATM   25  C4  0Q4 A 125      -4.364  16.693  30.211  1.00 17.52     0.241 C 
HETATM   26  O3  0Q4 A 125      -4.134  15.505  30.447  1.00 17.50    -0.271 OA
HETATM   27  N5  0Q4 A 125      -3.401  17.597  30.148  1.00 19.61    -0.346 N 
HETATM   28  H5  0Q4 A 125      -3.618  18.552  30.073  1.00 15.00     0.163 HD
BRANCH  27  29
HETATM   29  CA5 0Q4 A 125      -2.009  17.203  30.182  1.00 21.82     0.172 C 
HETATM   30  CB5 0Q4 A 125      -1.326  17.745  28.941  1.00 22.24     0.042 C 
BRANCH  29  31
HETATM   31  C5  0Q4 A 125      -1.197  17.617  31.435  1.00 24.09     0.240 C 
HETATM   32  O4  0Q4 A 125      -1.341  18.719  31.970  1.00 20.88    -0.271 OA
HETATM   33  N6  0Q4 A 125      -0.306  16.719  31.840  1.00 27.66    -0.346 N 
HETATM   34  H6  0Q4 A 125      -0.230  15.891  31.336  1.00 15.00     0.163 HD
BRANCH  33  35
HETATM   35  CA6 0Q4 A 125       0.622  16.931  32.944  1.00 31.09     0.176 C 
BRANCH  35  36
HETATM   36  C6  0Q4 A 125       1.972  17.292  32.302  1.00 33.78     0.238 C 
HETATM   37  O5  0Q4 A 125       2.094  17.323  31.042  1.00 34.60    -0.271 OA
HETATM   38  N7  0Q4 A 125       2.923  17.511  33.092  1.00 36.53    -0.368 N 
HETATM   39  H72 0Q4 A 125       2.826  17.487  34.107  1.00  0.00     0.159 HD
HETATM   40  H71 0Q4 A 125       3.819  17.750  32.666  1.00  0.00     0.159 HD
ENDBRANCH  35  36
BRANCH  35  41
HETATM   41  CB6 0Q4 A 125       0.752  15.612  33.747  1.00 32.55     0.035 C 
BRANCH  41  42
HETATM   42  CG6 0Q4 A 125       0.972  15.722  35.297  1.00 32.73     0.002 C 
BRANCH  42  43
HETATM   43  CD4 0Q4 A 125       0.418  17.051  35.947  1.00 31.59    -0.004 C 
HETATM   44  CE  0Q4 A 125      -0.974  16.842  36.507  1.00 23.29     0.005 C 
ENDBRANCH  42  43
ENDBRANCH  41  42
ENDBRANCH  35  41
ENDBRANCH  33  35
ENDBRANCH  29  31
ENDBRANCH  27  29
ENDBRANCH  24  25
BRANCH  24  45
HETATM   45  CB4 0Q4 A 125      -5.763  18.708  29.622  1.00 17.07     0.045 C 
BRANCH  45  46
HETATM   46  CG5 0Q4 A 125      -6.535  18.998  28.350  1.00 18.50     0.116 C 
BRANCH  46  47
HETATM   47  CD3 0Q4 A 125      -5.808  18.526  27.082  1.00 26.68     0.172 C 
HETATM   48  OE1 0Q4 A 125      -6.467  18.377  26.036  1.00 29.71    -0.648 OA
HETATM   49  OE2 0Q4 A 125      -4.569  18.299  27.111  1.00 31.35    -0.648 OA
ENDBRANCH  46  47
ENDBRANCH  45  46
ENDBRANCH  24  45
ENDBRANCH  22  24
ENDBRANCH  19  20
BRANCH  19  50
HETATM   50  CB3 0Q4 A 125      -7.886  15.184  34.169  1.00 18.22     0.073 C 
BRANCH  50  51
HETATM   51  CG4 0Q4 A 125      -7.005  15.520  35.307  1.00 21.59    -0.056 A 
HETATM   52  CD1 0Q4 A 125      -7.537  15.991  36.500  1.00 22.99     0.007 A 
HETATM   53  CE1 0Q4 A 125      -6.706  16.271  37.609  1.00 24.00     0.001 A 
HETATM   54  CZ1 0Q4 A 125      -5.323  16.084  37.517  1.00 25.64     0.000 A 
HETATM   55  CE2 0Q4 A 125      -4.775  15.621  36.322  1.00 27.27     0.001 A 
HETATM   56  CD2 0Q4 A 125      -5.629  15.339  35.213  1.00 24.65     0.007 A 
ENDBRANCH  50  51
ENDBRANCH  19  50
ENDBRANCH  17  19
ENDBRANCH  15  16
BRANCH  15  57
HETATM   57  CB2 0Q4 A 125     -12.107  14.681  31.332  1.00 19.32     0.034 C 
BRANCH  57  58
HETATM   58  CG3 0Q4 A 125     -11.980  15.415  29.967  1.00 21.12    -0.020 C 
HETATM   59  CD1 0Q4 A 125     -10.627  15.195  29.292  1.00 21.22     0.009 C 
HETATM   60  CD2 0Q4 A 125     -13.095  14.977  29.036  1.00 17.47     0.009 C 
ENDBRANCH  57  58
ENDBRANCH  15  57
ENDBRANCH  13  15
ENDBRANCH  10  11
BRANCH  10  61
HETATM   61  CB1 0Q4 A 125     -15.124  19.198  32.901  1.00 19.28     0.009 C 
HETATM   62  CG1 0Q4 A 125     -15.981  18.176  32.151  1.00 20.08     0.012 C 
HETATM   63  CG2 0Q4 A 125     -15.526  19.145  34.389  1.00 19.54     0.012 C 
ENDBRANCH  10  61
ENDBRANCH   8  10
ENDBRANCH   5   6
BRANCH   5  64
HETATM   64  CB  0Q4 A 125     -13.774  21.178  28.557  1.00 21.80     0.044 C 
BRANCH  64  65
HETATM   65  CG  0Q4 A 125     -15.157  20.484  28.804  1.00 26.69     0.023 C 
BRANCH  65  66
HETATM   66  CD  0Q4 A 125     -16.416  21.421  28.750  1.00 29.76     0.138 C 
BRANCH  66  67
HETATM   67  NE  0Q4 A 125     -17.419  21.166  29.793  1.00 32.26    -0.227 N 
HETATM   68  CZ  0Q4 A 125     -17.310  21.558  31.065  1.00 34.72     0.665 C 
HETATM   69  NH1 0Q4 A 125     -16.242  22.241  31.445  1.00 35.07    -0.235 N 
HETATM   70  NH2 0Q4 A 125     -18.203  21.164  31.984  1.00 35.86    -0.235 N 
HETATM   71 HH11 0Q4 A 125     -15.528  22.464  30.784  1.00 15.00     0.174 HD
HETATM   72 HH12 0Q4 A 125     -16.151  22.539  32.396  1.00 15.00     0.174 HD
HETATM   73 HH21 0Q4 A 125     -18.966  20.572  31.729  1.00 15.00     0.174 HD
HETATM   74 HH22 0Q4 A 125     -18.100  21.469  32.933  1.00 15.00     0.174 HD
HETATM   75  HE  0Q4 A 125     -18.232  20.671  29.549  1.00 15.00     0.177 HD
ENDBRANCH  66  67
ENDBRANCH  65  66
ENDBRANCH  64  65
ENDBRANCH   5  64
ENDBRANCH   1   5
TORSDOF 29
ENDMDL
MODEL 8
REMARK VINA RESULT:      -7.3      3.413     11.459
REMARK  29 active torsions:
REMARK  status: ('A' for Active; 'I' for Inactive)
REMARK    1  A    between atoms: N_1  and  CA_2 
REMARK    2  A    between atoms: CA_2  and  C_4 
REMARK    3  A    between atoms: CA_2  and  CB_6 
REMARK       I    between atoms: C_4  and  N1_19 
REMARK    4  A    between atoms: CB_6  and  CG_9 
REMARK    5  A    between atoms: CG_9  and  CD_12 
REMARK    6  A    between atoms: CD_12  and  NE_15 
REMARK       I    between atoms: NE_15  and  CZ_16 
REMARK       I    between atoms: CZ_16  and  NH1_17 
REMARK    7  A    between atoms: N1_19  and  CA1_20 
REMARK    8  A    between atoms: CA1_20  and  C1_22 
REMARK    9  A    between atoms: CA1_20  and  CB1_24 
REMARK       I    between atoms: C1_22  and  N2_34 
REMARK   10  A    between atoms: N2_34  and  CA2_35 
REMARK   11  A    between atoms: CA2_35  and  C2_37 
REMARK   12  A    between atoms: CA2_35  and  CB2_39 
REMARK   13  A    between atoms: CB2_39  and  CG3_42 
REMARK   14  A    between atoms: N3_52  and  CA3_53 
REMARK   15  A    between atoms: CA3_53  and  C3_55 
REMARK   16  A    between atoms: CA3_53  and  CB3_57 
REMARK       I    between atoms: C3_55  and  N4_71 
REMARK   17  A    between atoms: CB3_57  and  CG4_60 
REMARK   18  A    between atoms: N4_71  and  CA4_72 
REMARK   19  A    between atoms: CA4_72  and  C4_74 
REMARK   20  A    between atoms: CA4_72  and  CB4_76 
REMARK       I    between atoms: C4_74  and  N5_85 
REMARK   21  A    between atoms: CB4_76  and  CG5_79 
REMARK   22  A    between atoms: CG5_79  and  CD3_82 
REMARK   23  A    between atoms: N5_85  and  CA5_86 
REMARK   24  A    between atoms: CA5_86  and  C5_88 
REMARK       I    between atoms: C5_88  and  N6_94 
REMARK   25  A    between atoms: N6_94  and  CA6_95 
REMARK   26  A    between atoms: CA6_95  and  C6_97 
REMARK   27  A    between atoms: CA6_95  and  CB6_99 
REMARK       I    between atoms: C6_97  and  N7_112 
REMARK   28  A    between atoms: CB6_99  and  CG6_102 
REMARK   29  A    between atoms: CG6_102  and  CD4_105 
ROOT
HETATM    1  N   0Q4 A 125     -10.698  20.065  28.570  1.00 21.27    -0.067 N 
HETATM    2  H   0Q4 A 125      -9.790  20.310  28.989  1.00 15.00     0.275 HD
HETATM    3  H2  0Q4 A 125     -11.087  19.191  29.006  1.00 15.00     0.275 HD
HETATM    4  HN3 0Q4 A 125     -10.567  19.921  27.556  1.00 15.00     0.275 HD
ENDROOT
BRANCH   1   5
HETATM    5  CA  0Q4 A 125     -11.719  21.128  28.818  1.00 21.76     0.274 C 
BRANCH   5   6
HETATM    6  C   0Q4 A 125     -12.619  20.696  30.020  1.00 21.89     0.249 C 
HETATM    7  O   0Q4 A 125     -12.945  21.524  30.891  1.00 22.48    -0.271 OA
HETATM    8  N1  0Q4 A 125     -13.067  19.430  30.016  1.00 19.10    -0.346 N 
HETATM    9  H1  0Q4 A 125     -12.787  18.791  29.327  1.00 15.00     0.163 HD
BRANCH   8  10
HETATM   10  CA1 0Q4 A 125     -13.964  18.894  31.042  1.00 18.90     0.180 C 
BRANCH  10  11
HETATM   11  C1  0Q4 A 125     -13.210  18.013  32.071  1.00 17.14     0.241 C 
HETATM   12  O1  0Q4 A 125     -13.242  18.232  33.276  1.00 18.87    -0.271 OA
HETATM   13  N2  0Q4 A 125     -12.429  17.073  31.570  1.00 17.78    -0.350 N 
HETATM   14  HN2 0Q4 A 125     -12.350  16.972  30.595  1.00 15.00     0.163 HD
BRANCH  13  15
HETATM   15  CA2 0Q4 A 125     -11.726  16.144  32.434  1.00 17.96     0.123 C 
BRANCH  15  16
HETATM   16  C2  0Q4 A 125     -10.229  15.996  32.197  1.00 17.56     0.081 C 
HETATM   17  N3  0Q4 A 125      -9.454  16.293  33.225  1.00 16.64    -0.387 N 
HETATM   18  H3  0Q4 A 125      -9.881  16.590  34.051  1.00 15.00     0.159 HD
BRANCH  17  19
HETATM   19  CA3 0Q4 A 125      -7.992  16.172  33.200  1.00 16.89     0.177 C 
BRANCH  19  20
HETATM   20  C3  0Q4 A 125      -7.622  15.938  31.709  1.00 15.06     0.241 C 
HETATM   21  O2  0Q4 A 125      -7.851  14.850  31.176  1.00 12.51    -0.271 OA
HETATM   22  N4  0Q4 A 125      -7.164  16.992  31.032  1.00 14.54    -0.346 N 
HETATM   23  H4  0Q4 A 125      -6.992  17.838  31.501  1.00 15.00     0.163 HD
BRANCH  22  24
HETATM   24  CA4 0Q4 A 125      -6.848  16.947  29.602  1.00 15.81     0.177 C 
BRANCH  24  25
HETATM   25  C4  0Q4 A 125      -5.404  16.570  29.252  1.00 17.52     0.241 C 
HETATM   26  O3  0Q4 A 125      -5.137  15.598  28.543  1.00 17.50    -0.271 OA
HETATM   27  N5  0Q4 A 125      -4.469  17.256  29.887  1.00 19.61    -0.346 N 
HETATM   28  H5  0Q4 A 125      -4.715  17.953  30.535  1.00 15.00     0.163 HD
BRANCH  27  29
HETATM   29  CA5 0Q4 A 125      -3.065  17.002  29.641  1.00 21.82     0.172 C 
HETATM   30  CB5 0Q4 A 125      -2.362  18.333  29.456  1.00 22.24     0.042 C 
BRANCH  29  31
HETATM   31  C5  0Q4 A 125      -2.310  16.169  30.707  1.00 24.09     0.240 C 
HETATM   32  O4  0Q4 A 125      -2.111  14.960  30.569  1.00 20.88    -0.271 OA
HETATM   33  N6  0Q4 A 125      -1.953  16.849  31.791  1.00 27.66    -0.346 N 
HETATM   34  H6  0Q4 A 125      -2.185  17.793  31.835  1.00 15.00     0.163 HD
BRANCH  33  35
HETATM   35  CA6 0Q4 A 125      -1.308  16.251  32.953  1.00 31.09     0.176 C 
BRANCH  35  36
HETATM   36  C6  0Q4 A 125      -1.501  17.248  34.108  1.00 33.78     0.238 C 
HETATM   37  O5  0Q4 A 125      -1.019  17.004  35.252  1.00 34.60    -0.271 OA
HETATM   38  N7  0Q4 A 125      -2.181  18.273  33.850  1.00 36.53    -0.368 N 
HETATM   39  H72 0Q4 A 125      -2.570  18.470  32.929  1.00  0.00     0.159 HD
HETATM   40  H71 0Q4 A 125      -2.309  18.934  34.616  1.00  0.00     0.159 HD
ENDBRANCH  35  36
BRANCH  35  41
HETATM   41  CB6 0Q4 A 125       0.202  16.076  32.651  1.00 32.55     0.035 C 
BRANCH  41  42
HETATM   42  CG6 0Q4 A 125       0.953  17.278  31.975  1.00 32.73     0.002 C 
BRANCH  42  43
HETATM   43  CD4 0Q4 A 125       2.280  17.721  32.708  1.00 31.59    -0.004 C 
HETATM   44  CE  0Q4 A 125       2.777  16.632  33.637  1.00 23.29     0.005 C 
ENDBRANCH  42  43
ENDBRANCH  41  42
ENDBRANCH  35  41
ENDBRANCH  33  35
ENDBRANCH  29  31
ENDBRANCH  27  29
ENDBRANCH  24  25
BRANCH  24  45
HETATM   45  CB4 0Q4 A 125      -7.200  18.317  28.957  1.00 17.07     0.045 C 
BRANCH  45  46
HETATM   46  CG5 0Q4 A 125      -7.330  18.363  27.447  1.00 18.50     0.116 C 
BRANCH  46  47
HETATM   47  CD3 0Q4 A 125      -8.620  17.707  26.932  1.00 26.68     0.172 C 
HETATM   48  OE1 0Q4 A 125      -8.714  17.447  25.718  1.00 29.71    -0.648 OA
HETATM   49  OE2 0Q4 A 125      -9.555  17.439  27.732  1.00 31.35    -0.648 OA
ENDBRANCH  46  47
ENDBRANCH  45  46
ENDBRANCH  24  45
ENDBRANCH  22  24
ENDBRANCH  19  20
BRANCH  19  50
HETATM   50  CB3 0Q4 A 125      -7.609  15.032  34.191  1.00 18.22     0.073 C 
BRANCH  50  51
HETATM   51  CG4 0Q4 A 125      -6.839  15.461  35.378  1.00 21.59    -0.056 A 
HETATM   52  CD1 0Q4 A 125      -7.488  15.943  36.507  1.00 22.99     0.007 A 
HETATM   53  CE1 0Q4 A 125      -6.763  16.312  37.663  1.00 24.00     0.001 A 
HETATM   54  CZ1 0Q4 A 125      -5.368  16.204  37.684  1.00 25.64     0.000 A 
HETATM   55  CE2 0Q4 A 125      -4.704  15.731  36.554  1.00 27.27     0.001 A 
HETATM   56  CD2 0Q4 A 125      -5.452  15.359  35.396  1.00 24.65     0.007 A 
ENDBRANCH  50  51
ENDBRANCH  19  50
ENDBRANCH  17  19
ENDBRANCH  15  16
BRANCH  15  57
HETATM   57  CB2 0Q4 A 125     -12.454  14.778  32.430  1.00 19.32     0.034 C 
BRANCH  57  58
HETATM   58  CG3 0Q4 A 125     -11.828  13.690  33.348  1.00 21.12    -0.020 C 
HETATM   59  CD1 0Q4 A 125     -12.067  13.950  34.835  1.00 21.22     0.009 C 
HETATM   60  CD2 0Q4 A 125     -12.366  12.322  32.973  1.00 17.47     0.009 C 
ENDBRANCH  57  58
ENDBRANCH  15  57
ENDBRANCH  13  15
ENDBRANCH  10  11
BRANCH  10  61
HETATM   61  CB1 0Q4 A 125     -15.227  18.164  30.350  1.00 19.28     0.009 C 
HETATM   62  CG1 0Q4 A 125     -14.820  17.397  29.089  1.00 20.08     0.012 C 
HETATM   63  CG2 0Q4 A 125     -15.875  17.157  31.322  1.00 19.54     0.012 C 
ENDBRANCH  10  61
ENDBRANCH   8  10
ENDBRANCH   5   6
BRANCH   5  64
HETATM   64  CB  0Q4 A 125     -12.516  21.367  27.530  1.00 21.80     0.044 C 
BRANCH  64  65
HETATM   65  CG  0Q4 A 125     -12.196  20.431  26.314  1.00 26.69     0.023 C 
BRANCH  65  66
HETATM   66  CD  0Q4 A 125     -13.103  19.160  26.167  1.00 29.76     0.138 C 
BRANCH  66  67
HETATM   67  NE  0Q4 A 125     -12.456  17.893  26.535  1.00 32.26    -0.227 N 
HETATM   68  CZ  0Q4 A 125     -12.313  16.847  25.719  1.00 34.72     0.665 C 
HETATM   69  NH1 0Q4 A 125     -12.760  16.926  24.476  1.00 35.07    -0.235 N 
HETATM   70  NH2 0Q4 A 125     -11.837  15.679  26.176  1.00 35.86    -0.235 N 
HETATM   71 HH11 0Q4 A 125     -13.195  17.764  24.152  1.00 15.00     0.174 HD
HETATM   72 HH12 0Q4 A 125     -12.657  16.147  23.856  1.00 15.00     0.174 HD
HETATM   73 HH21 0Q4 A 125     -11.580  15.576  27.135  1.00 15.00     0.174 HD
HETATM   74 HH22 0Q4 A 125     -11.741  14.907  25.545  1.00 15.00     0.174 HD
HETATM   75  HE  0Q4 A 125     -12.101  17.798  27.447  1.00 15.00     0.177 HD
ENDBRANCH  66  67
ENDBRANCH  65  66
ENDBRANCH  64  65
ENDBRANCH   5  64
ENDBRANCH   1   5
TORSDOF 29
ENDMDL
MODEL 9
REMARK VINA RESULT:      -7.2      3.678     12.133
REMARK  29 active torsions:
REMARK  status: ('A' for Active; 'I' for Inactive)
REMARK    1  A    between atoms: N_1  and  CA_2 
REMARK    2  A    between atoms: CA_2  and  C_4 
REMARK    3  A    between atoms: CA_2  and  CB_6 
REMARK       I    between atoms: C_4  and  N1_19 
REMARK    4  A    between atoms: CB_6  and  CG_9 
REMARK    5  A    between atoms: CG_9  and  CD_12 
REMARK    6  A    between atoms: CD_12  and  NE_15 
REMARK       I    between atoms: NE_15  and  CZ_16 
REMARK       I    between atoms: CZ_16  and  NH1_17 
REMARK    7  A    between atoms: N1_19  and  CA1_20 
REMARK    8  A    between atoms: CA1_20  and  C1_22 
REMARK    9  A    between atoms: CA1_20  and  CB1_24 
REMARK       I    between atoms: C1_22  and  N2_34 
REMARK   10  A    between atoms: N2_34  and  CA2_35 
REMARK   11  A    between atoms: CA2_35  and  C2_37 
REMARK   12  A    between atoms: CA2_35  and  CB2_39 
REMARK   13  A    between atoms: CB2_39  and  CG3_42 
REMARK   14  A    between atoms: N3_52  and  CA3_53 
REMARK   15  A    between atoms: CA3_53  and  C3_55 
REMARK   16  A    between atoms: CA3_53  and  CB3_57 
REMARK       I    between atoms: C3_55  and  N4_71 
REMARK   17  A    between atoms: CB3_57  and  CG4_60 
REMARK   18  A    between atoms: N4_71  and  CA4_72 
REMARK   19  A    between atoms: CA4_72  and  C4_74 
REMARK   20  A    between atoms: CA4_72  and  CB4_76 
REMARK       I    between atoms: C4_74  and  N5_85 
REMARK   21  A    between atoms: CB4_76  and  CG5_79 
REMARK   22  A    between atoms: CG5_79  and  CD3_82 
REMARK   23  A    between atoms: N5_85  and  CA5_86 
REMARK   24  A    between atoms: CA5_86  and  C5_88 
REMARK       I    between atoms: C5_88  and  N6_94 
REMARK   25  A    between atoms: N6_94  and  CA6_95 
REMARK   26  A    between atoms: CA6_95  and  C6_97 
REMARK   27  A    between atoms: CA6_95  and  CB6_99 
REMARK       I    between atoms: C6_97  and  N7_112 
REMARK   28  A    between atoms: CB6_99  and  CG6_102 
REMARK   29  A    between atoms: CG6_102  and  CD4_105 
ROOT
HETATM    1  N   0Q4 A 125     -14.689   9.357  29.985  1.00 21.27    -0.067 N 
HETATM    2  H   0Q4 A 125     -14.721   8.330  30.057  1.00 15.00     0.275 HD
HETATM    3  H2  0Q4 A 125     -14.998   9.805  30.885  1.00 15.00     0.275 HD
HETATM    4  HN3 0Q4 A 125     -15.309   9.655  29.216  1.00 15.00     0.275 HD
ENDROOT
BRANCH   1   5
HETATM    5  CA  0Q4 A 125     -13.295   9.844  29.750  1.00 21.76     0.274 C 
BRANCH   5   6
HETATM    6  C   0Q4 A 125     -13.333  11.384  29.490  1.00 21.89     0.249 C 
HETATM    7  O   0Q4 A 125     -13.348  11.825  28.325  1.00 22.48    -0.271 OA
HETATM    8  N1  0Q4 A 125     -13.420  12.179  30.569  1.00 19.10    -0.346 N 
HETATM    9  H1  0Q4 A 125     -13.392  11.811  31.478  1.00 15.00     0.163 HD
BRANCH   8  10
HETATM   10  CA1 0Q4 A 125     -13.521  13.637  30.485  1.00 18.90     0.180 C 
BRANCH  10  11
HETATM   11  C1  0Q4 A 125     -12.801  14.340  31.666  1.00 17.14     0.241 C 
HETATM   12  O1  0Q4 A 125     -12.462  15.516  31.625  1.00 18.87    -0.271 OA
HETATM   13  N2  0Q4 A 125     -12.465  13.567  32.683  1.00 17.78    -0.350 N 
HETATM   14  HN2 0Q4 A 125     -12.669  12.605  32.655  1.00 15.00     0.163 HD
BRANCH  13  15
HETATM   15  CA2 0Q4 A 125     -11.848  14.122  33.873  1.00 17.96     0.123 C 
BRANCH  15  16
HETATM   16  C2  0Q4 A 125     -10.336  14.300  33.833  1.00 17.56     0.081 C 
HETATM   17  N3  0Q4 A 125      -9.909  15.500  33.481  1.00 16.64    -0.387 N 
HETATM   18  H3  0Q4 A 125     -10.577  16.179  33.264  1.00 15.00     0.159 HD
BRANCH  17  19
HETATM   19  CA3 0Q4 A 125      -8.491  15.874  33.426  1.00 16.89     0.177 C 
BRANCH  19  20
HETATM   20  C3  0Q4 A 125      -8.154  15.993  31.914  1.00 15.06     0.241 C 
HETATM   21  O2  0Q4 A 125      -9.035  15.828  31.067  1.00 12.51    -0.271 OA
HETATM   22  N4  0Q4 A 125      -6.919  16.388  31.604  1.00 14.54    -0.346 N 
HETATM   23  H4  0Q4 A 125      -6.249  16.501  32.312  1.00 15.00     0.163 HD
BRANCH  22  24
HETATM   24  CA4 0Q4 A 125      -6.476  16.622  30.226  1.00 15.81     0.177 C 
BRANCH  24  25
HETATM   25  C4  0Q4 A 125      -5.056  16.152  29.895  1.00 17.52     0.241 C 
HETATM   26  O3  0Q4 A 125      -4.804  14.976  29.622  1.00 17.50    -0.271 OA
HETATM   27  N5  0Q4 A 125      -4.104  17.050  30.079  1.00 19.61    -0.346 N 
HETATM   28  H5  0Q4 A 125      -4.324  17.950  30.408  1.00 15.00     0.163 HD
BRANCH  27  29
HETATM   29  CA5 0Q4 A 125      -2.720  16.735  29.797  1.00 21.82     0.172 C 
HETATM   30  CB5 0Q4 A 125      -2.030  17.995  29.309  1.00 22.24     0.042 C 
BRANCH  29  31
HETATM   31  C5  0Q4 A 125      -1.895  16.116  30.954  1.00 24.09     0.240 C 
HETATM   32  O4  0Q4 A 125      -1.514  14.944  30.928  1.00 20.88    -0.271 OA
HETATM   33  N6  0Q4 A 125      -1.689  16.929  31.984  1.00 27.66    -0.346 N 
HETATM   34  H6  0Q4 A 125      -2.059  17.827  31.938  1.00 15.00     0.163 HD
BRANCH  33  35
HETATM   35  CA6 0Q4 A 125      -1.013  16.533  33.212  1.00 31.09     0.176 C 
BRANCH  35  36
HETATM   36  C6  0Q4 A 125      -1.628  17.389  34.332  1.00 33.78     0.238 C 
HETATM   37  O5  0Q4 A 125      -1.607  16.985  35.531  1.00 34.60    -0.271 OA
HETATM   38  N7  0Q4 A 125      -2.165  18.468  33.977  1.00 36.53    -0.368 N 
HETATM   39  H72 0Q4 A 125      -2.181  18.794  33.011  1.00  0.00     0.159 HD
HETATM   40  H71 0Q4 A 125      -2.573  19.036  34.719  1.00  0.00     0.159 HD
ENDBRANCH  35  36
BRANCH  35  41
HETATM   41  CB6 0Q4 A 125       0.499  16.848  33.073  1.00 32.55     0.035 C 
BRANCH  41  42
HETATM   42  CG6 0Q4 A 125       1.517  15.749  33.540  1.00 32.73     0.002 C 
BRANCH  42  43
HETATM   43  CD4 0Q4 A 125       2.935  15.828  32.848  1.00 31.59    -0.004 C 
HETATM   44  CE  0Q4 A 125       3.063  17.087  32.015  1.00 23.29     0.005 C 
ENDBRANCH  42  43
ENDBRANCH  41  42
ENDBRANCH  35  41
ENDBRANCH  33  35
ENDBRANCH  29  31
ENDBRANCH  27  29
ENDBRANCH  24  25
BRANCH  24  45
HETATM   45  CB4 0Q4 A 125      -6.616  18.134  29.894  1.00 17.07     0.045 C 
BRANCH  45  46
HETATM   46  CG5 0Q4 A 125      -7.338  18.501  28.611  1.00 18.50     0.116 C 
BRANCH  46  47
HETATM   47  CD3 0Q4 A 125      -6.448  18.388  27.364  1.00 26.68     0.172 C 
HETATM   48  OE1 0Q4 A 125      -5.219  18.542  27.492  1.00 29.71    -0.648 OA
HETATM   49  OE2 0Q4 A 125      -6.962  18.140  26.242  1.00 31.35    -0.648 OA
ENDBRANCH  46  47
ENDBRANCH  45  46
ENDBRANCH  24  45
ENDBRANCH  22  24
ENDBRANCH  19  20
BRANCH  19  50
HETATM   50  CB3 0Q4 A 125      -7.701  14.794  34.224  1.00 18.22     0.073 C 
BRANCH  50  51
HETATM   51  CG4 0Q4 A 125      -6.939  15.300  35.385  1.00 21.59    -0.056 A 
HETATM   52  CD1 0Q4 A 125      -5.556  15.186  35.429  1.00 22.99     0.007 A 
HETATM   53  CE1 0Q4 A 125      -4.816  15.708  36.515  1.00 24.00     0.001 A 
HETATM   54  CZ1 0Q4 A 125      -5.472  16.344  37.574  1.00 25.64     0.000 A 
HETATM   55  CE2 0Q4 A 125      -6.861  16.456  37.547  1.00 27.27     0.001 A 
HETATM   56  CD2 0Q4 A 125      -7.593  15.927  36.441  1.00 24.65     0.007 A 
ENDBRANCH  50  51
ENDBRANCH  19  50
ENDBRANCH  17  19
ENDBRANCH  15  16
BRANCH  15  57
HETATM   57  CB2 0Q4 A 125     -12.308  13.325  35.117  1.00 19.32     0.034 C 
BRANCH  57  58
HETATM   58  CG3 0Q4 A 125     -13.497  13.949  35.902  1.00 21.12    -0.020 C 
HETATM   59  CD1 0Q4 A 125     -13.596  13.444  37.341  1.00 21.22     0.009 C 
HETATM   60  CD2 0Q4 A 125     -13.384  15.462  35.896  1.00 17.47     0.009 C 
ENDBRANCH  57  58
ENDBRANCH  15  57
ENDBRANCH  13  15
ENDBRANCH  10  11
BRANCH  10  61
HETATM   61  CB1 0Q4 A 125     -15.063  14.078  30.298  1.00 19.28     0.009 C 
HETATM   62  CG1 0Q4 A 125     -15.657  14.635  31.594  1.00 20.08     0.012 C 
HETATM   63  CG2 0Q4 A 125     -15.190  15.170  29.217  1.00 19.54     0.012 C 
ENDBRANCH  10  61
ENDBRANCH   8  10
ENDBRANCH   5   6
BRANCH   5  64
HETATM   64  CB  0Q4 A 125     -12.679   9.056  28.587  1.00 21.80     0.044 C 
BRANCH  64  65
HETATM   65  CG  0Q4 A 125     -11.515   8.068  28.938  1.00 26.69     0.023 C 
BRANCH  65  66
HETATM   66  CD  0Q4 A 125     -11.361   7.697  30.455  1.00 29.76     0.138 C 
BRANCH  66  67
HETATM   67  NE  0Q4 A 125     -12.146   6.534  30.889  1.00 32.26    -0.227 N 
HETATM   68  CZ  0Q4 A 125     -12.718   6.407  32.089  1.00 34.72     0.665 C 
HETATM   69  NH1 0Q4 A 125     -12.603   7.388  32.970  1.00 35.07    -0.235 N 
HETATM   70  NH2 0Q4 A 125     -13.298   5.255  32.456  1.00 35.86    -0.235 N 
HETATM   71 HH11 0Q4 A 125     -12.098   8.216  32.736  1.00 15.00     0.174 HD
HETATM   72 HH12 0Q4 A 125     -13.029   7.303  33.873  1.00 15.00     0.174 HD
HETATM   73 HH21 0Q4 A 125     -13.312   4.474  31.834  1.00 15.00     0.174 HD
HETATM   74 HH22 0Q4 A 125     -13.719   5.183  33.362  1.00 15.00     0.174 HD
HETATM   75  HE  0Q4 A 125     -12.264   5.788  30.260  1.00 15.00     0.177 HD
ENDBRANCH  66  67
ENDBRANCH  65  66
ENDBRANCH  64  65
ENDBRANCH   5  64
ENDBRANCH   1   5
TORSDOF 29
ENDMDL
MODEL 10
REMARK VINA RESULT:      -7.2      3.168      6.384
REMARK  29 active torsions:
REMARK  status: ('A' for Active; 'I' for Inactive)
REMARK    1  A    between atoms: N_1  and  CA_2 
REMARK    2  A    between atoms: CA_2  and  C_4 
REMARK    3  A    between atoms: CA_2  and  CB_6 
REMARK       I    between atoms: C_4  and  N1_19 
REMARK    4  A    between atoms: CB_6  and  CG_9 
REMARK    5  A    between atoms: CG_9  and  CD_12 
REMARK    6  A    between atoms: CD_12  and  NE_15 
REMARK       I    between atoms: NE_15  and  CZ_16 
REMARK       I    between atoms: CZ_16  and  NH1_17 
REMARK    7  A    between atoms: N1_19  and  CA1_20 
REMARK    8  A    between atoms: CA1_20  and  C1_22 
REMARK    9  A    between atoms: CA1_20  and  CB1_24 
REMARK       I    between atoms: C1_22  and  N2_34 
REMARK   10  A    between atoms: N2_34  and  CA2_35 
REMARK   11  A    between atoms: CA2_35  and  C2_37 
REMARK   12  A    between atoms: CA2_35  and  CB2_39 
REMARK   13  A    between atoms: CB2_39  and  CG3_42 
REMARK   14  A    between atoms: N3_52  and  CA3_53 
REMARK   15  A    between atoms: CA3_53  and  C3_55 
REMARK   16  A    between atoms: CA3_53  and  CB3_57 
REMARK       I    between atoms: C3_55  and  N4_71 
REMARK   17  A    between atoms: CB3_57  and  CG4_60 
REMARK   18  A    between atoms: N4_71  and  CA4_72 
REMARK   19  A    between atoms: CA4_72  and  C4_74 
REMARK   20  A    between atoms: CA4_72  and  CB4_76 
REMARK       I    between atoms: C4_74  and  N5_85 
REMARK   21  A    between atoms: CB4_76  and  CG5_79 
REMARK   22  A    between atoms: CG5_79  and  CD3_82 
REMARK   23  A    between atoms: N5_85  and  CA5_86 
REMARK   24  A    between atoms: CA5_86  and  C5_88 
REMARK       I    between atoms: C5_88  and  N6_94 
REMARK   25  A    between atoms: N6_94  and  CA6_95 
REMARK   26  A    between atoms: CA6_95  and  C6_97 
REMARK   27  A    between atoms: CA6_95  and  CB6_99 
REMARK       I    between atoms: C6_97  and  N7_112 
REMARK   28  A    between atoms: CB6_99  and  CG6_102 
REMARK   29  A    between atoms: CG6_102  and  CD4_105 
ROOT
HETATM    1  N   0Q4 A 125      -1.898  18.591  33.348  1.00 21.27    -0.067 N 
HETATM    2  H   0Q4 A 125      -2.508  19.175  33.936  1.00 15.00     0.275 HD
HETATM    3  H2  0Q4 A 125      -0.923  18.982  33.314  1.00 15.00     0.275 HD
HETATM    4  HN3 0Q4 A 125      -2.294  18.553  32.396  1.00 15.00     0.275 HD
ENDROOT
BRANCH   1   5
HETATM    5  CA  0Q4 A 125      -1.759  17.212  33.910  1.00 21.76     0.274 C 
BRANCH   5   6
HETATM    6  C   0Q4 A 125      -3.162  16.524  33.920  1.00 21.89     0.249 C 
HETATM    7  O   0Q4 A 125      -3.480  15.731  33.014  1.00 22.48    -0.271 OA
HETATM    8  N1  0Q4 A 125      -3.954  16.779  34.974  1.00 19.10    -0.346 N 
HETATM    9  H1  0Q4 A 125      -3.689  17.419  35.669  1.00 15.00     0.163 HD
BRANCH   8  10
HETATM   10  CA1 0Q4 A 125      -5.271  16.167  35.154  1.00 18.90     0.180 C 
BRANCH  10  11
HETATM   11  C1  0Q4 A 125      -6.264  16.583  34.038  1.00 17.14     0.241 C 
HETATM   12  O1  0Q4 A 125      -6.769  17.698  33.986  1.00 18.87    -0.271 OA
HETATM   13  N2  0Q4 A 125      -6.633  15.628  33.203  1.00 17.78    -0.350 N 
HETATM   14  HN2 0Q4 A 125      -6.283  14.716  33.318  1.00 15.00     0.163 HD
BRANCH  13  15
HETATM   15  CA2 0Q4 A 125      -7.505  15.911  32.079  1.00 17.96     0.123 C 
BRANCH  15  16
HETATM   16  C2  0Q4 A 125      -6.988  16.913  31.054  1.00 17.56     0.081 C 
HETATM   17  N3  0Q4 A 125      -7.268  16.639  29.793  1.00 16.64    -0.387 N 
HETATM   18  H3  0Q4 A 125      -7.769  15.823  29.601  1.00 15.00     0.159 HD
BRANCH  17  19
HETATM   19  CA3 0Q4 A 125      -6.890  17.506  28.671  1.00 16.89     0.177 C 
BRANCH  19  20
HETATM   20  C3  0Q4 A 125      -8.215  17.803  27.915  1.00 15.06     0.241 C 
HETATM   21  O2  0Q4 A 125      -8.189  18.159  26.734  1.00 12.51    -0.271 OA
HETATM   22  N4  0Q4 A 125      -9.349  17.545  28.567  1.00 14.54    -0.346 N 
HETATM   23  H4  0Q4 A 125      -9.320  17.269  29.509  1.00 15.00     0.163 HD
BRANCH  22  24
HETATM   24  CA4 0Q4 A 125     -10.673  17.700  27.959  1.00 15.81     0.177 C 
BRANCH  24  25
HETATM   25  C4  0Q4 A 125     -11.365  19.044  28.208  1.00 17.52     0.241 C 
HETATM   26  O3  0Q4 A 125     -10.977  20.087  27.678  1.00 17.50    -0.271 OA
HETATM   27  N5  0Q4 A 125     -12.298  19.038  29.145  1.00 19.61    -0.346 N 
HETATM   28  H5  0Q4 A 125     -12.509  18.210  29.633  1.00 15.00     0.163 HD
BRANCH  27  29
HETATM   29  CA5 0Q4 A 125     -13.031  20.241  29.473  1.00 21.82     0.172 C 
HETATM   30  CB5 0Q4 A 125     -14.285  20.285  28.620  1.00 22.24     0.042 C 
BRANCH  29  31
HETATM   31  C5  0Q4 A 125     -13.417  20.441  30.960  1.00 24.09     0.240 C 
HETATM   32  O4  0Q4 A 125     -13.328  21.538  31.515  1.00 20.88    -0.271 OA
HETATM   33  N6  0Q4 A 125     -13.792  19.332  31.589  1.00 27.66    -0.346 N 
HETATM   34  H6  0Q4 A 125     -13.797  18.500  31.084  1.00 15.00     0.163 HD
BRANCH  33  35
HETATM   35  CA6 0Q4 A 125     -14.118  19.270  33.008  1.00 31.09     0.176 C 
BRANCH  35  36
HETATM   36  C6  0Q4 A 125     -13.541  17.939  33.519  1.00 33.78     0.238 C 
HETATM   37  O5  0Q4 A 125     -14.255  17.156  34.212  1.00 34.60    -0.271 OA
HETATM   38  N7  0Q4 A 125     -12.339  17.708  33.238  1.00 36.53    -0.368 N 
HETATM   39  H72 0Q4 A 125     -11.763  18.338  32.679  1.00  0.00     0.159 HD
HETATM   40  H71 0Q4 A 125     -11.957  16.826  33.577  1.00  0.00     0.159 HD
ENDBRANCH  35  36
BRANCH  35  41
HETATM   41  CB6 0Q4 A 125     -15.660  19.276  33.166  1.00 32.55     0.035 C 
BRANCH  41  42
HETATM   42  CG6 0Q4 A 125     -16.517  18.756  31.959  1.00 32.73     0.002 C 
BRANCH  42  43
HETATM   43  CD4 0Q4 A 125     -17.348  19.872  31.212  1.00 31.59    -0.004 C 
HETATM   44  CE  0Q4 A 125     -17.783  19.399  29.840  1.00 23.29     0.005 C 
ENDBRANCH  42  43
ENDBRANCH  41  42
ENDBRANCH  35  41
ENDBRANCH  33  35
ENDBRANCH  29  31
ENDBRANCH  27  29
ENDBRANCH  24  25
BRANCH  24  45
HETATM   45  CB4 0Q4 A 125     -11.594  16.543  28.437  1.00 17.07     0.045 C 
BRANCH  45  46
HETATM   46  CG5 0Q4 A 125     -12.212  15.659  27.371  1.00 18.50     0.116 C 
BRANCH  46  47
HETATM   47  CD3 0Q4 A 125     -11.675  14.220  27.393  1.00 26.68     0.172 C 
HETATM   48  OE1 0Q4 A 125     -12.405  13.317  27.842  1.00 29.71    -0.648 OA
HETATM   49  OE2 0Q4 A 125     -10.518  13.971  26.961  1.00 31.35    -0.648 OA
ENDBRANCH  46  47
ENDBRANCH  45  46
ENDBRANCH  24  45
ENDBRANCH  22  24
ENDBRANCH  19  20
BRANCH  19  50
HETATM   50  CB3 0Q4 A 125      -5.789  16.757  27.862  1.00 18.22     0.073 C 
BRANCH  50  51
HETATM   51  CG4 0Q4 A 125      -4.455  16.720  28.498  1.00 21.59    -0.056 A 
HETATM   52  CD1 0Q4 A 125      -3.780  17.895  28.798  1.00 22.99     0.007 A 
HETATM   53  CE1 0Q4 A 125      -2.524  17.869  29.447  1.00 24.00     0.001 A 
HETATM   54  CZ1 0Q4 A 125      -1.934  16.649  29.792  1.00 25.64     0.000 A 
HETATM   55  CE2 0Q4 A 125      -2.597  15.461  29.487  1.00 27.27     0.001 A 
HETATM   56  CD2 0Q4 A 125      -3.867  15.505  28.835  1.00 24.65     0.007 A 
ENDBRANCH  50  51
ENDBRANCH  19  50
ENDBRANCH  17  19
ENDBRANCH  15  16
BRANCH  15  57
HETATM   57  CB2 0Q4 A 125      -8.916  16.282  32.596  1.00 19.32     0.034 C 
BRANCH  57  58
HETATM   58  CG3 0Q4 A 125      -9.998  15.179  32.418  1.00 21.12    -0.020 C 
HETATM   59  CD1 0Q4 A 125     -10.092  14.658  30.984  1.00 21.22     0.009 C 
HETATM   60  CD2 0Q4 A 125      -9.724  14.026  33.366  1.00 17.47     0.009 C 
ENDBRANCH  57  58
ENDBRANCH  15  57
ENDBRANCH  13  15
ENDBRANCH  10  11
BRANCH  10  61
HETATM   61  CB1 0Q4 A 125      -5.812  16.440  36.651  1.00 19.28     0.009 C 
HETATM   62  CG1 0Q4 A 125      -7.258  15.972  36.828  1.00 20.08     0.012 C 
HETATM   63  CG2 0Q4 A 125      -4.947  15.693  37.687  1.00 19.54     0.012 C 
ENDBRANCH  10  61
ENDBRANCH   8  10
ENDBRANCH   5   6
BRANCH   5  64
HETATM   64  CB  0Q4 A 125      -1.127  17.301  35.304  1.00 21.80     0.044 C 
BRANCH  64  65
HETATM   65  CG  0Q4 A 125       0.143  16.420  35.564  1.00 26.69     0.023 C 
BRANCH  65  66
HETATM   66  CD  0Q4 A 125       1.518  17.056  35.152  1.00 29.76     0.138 C 
BRANCH  66  67
HETATM   67  NE  0Q4 A 125       1.874  16.892  33.737  1.00 32.26    -0.227 N 
HETATM   68  CZ  0Q4 A 125       1.800  17.857  32.817  1.00 34.72     0.665 C 
HETATM   69  NH1 0Q4 A 125       1.397  19.064  33.174  1.00 35.07    -0.235 N 
HETATM   70  NH2 0Q4 A 125       2.010  17.587  31.520  1.00 35.86    -0.235 N 
HETATM   71 HH11 0Q4 A 125       1.154  19.253  34.124  1.00 15.00     0.174 HD
HETATM   72 HH12 0Q4 A 125       1.338  19.795  32.491  1.00 15.00     0.174 HD
HETATM   73 HH21 0Q4 A 125       2.227  16.658  31.224  1.00 15.00     0.174 HD
HETATM   74 HH22 0Q4 A 125       1.947  18.327  30.847  1.00 15.00     0.174 HD
HETATM   75  HE  0Q4 A 125       2.190  16.012  33.433  1.00 15.00     0.177 HD
ENDBRANCH  66  67
ENDBRANCH  65  66
ENDBRANCH  64  65
ENDBRANCH   5  64
ENDBRANCH   1   5
TORSDOF 29
ENDMDL
MODEL 11
REMARK VINA RESULT:      -7.1      3.473     11.718
REMARK  29 active torsions:
REMARK  status: ('A' for Active; 'I' for Inactive)
REMARK    1  A    between atoms: N_1  and  CA_2 
REMARK    2  A    between atoms: CA_2  and  C_4 
REMARK    3  A    between atoms: CA_2  and  CB_6 
REMARK       I    between atoms: C_4  and  N1_19 
REMARK    4  A    between atoms: CB_6  and  CG_9 
REMARK    5  A    between atoms: CG_9  and  CD_12 
REMARK    6  A    between atoms: CD_12  and  NE_15 
REMARK       I    between atoms: NE_15  and  CZ_16 
REMARK       I    between atoms: CZ_16  and  NH1_17 
REMARK    7  A    between atoms: N1_19  and  CA1_20 
REMARK    8  A    between atoms: CA1_20  and  C1_22 
REMARK    9  A    between atoms: CA1_20  and  CB1_24 
REMARK       I    between atoms: C1_22  and  N2_34 
REMARK   10  A    between atoms: N2_34  and  CA2_35 
REMARK   11  A    between atoms: CA2_35  and  C2_37 
REMARK   12  A    between atoms: CA2_35  and  CB2_39 
REMARK   13  A    between atoms: CB2_39  and  CG3_42 
REMARK   14  A    between atoms: N3_52  and  CA3_53 
REMARK   15  A    between atoms: CA3_53  and  C3_55 
REMARK   16  A    between atoms: CA3_53  and  CB3_57 
REMARK       I    between atoms: C3_55  and  N4_71 
REMARK   17  A    between atoms: CB3_57  and  CG4_60 
REMARK   18  A    between atoms: N4_71  and  CA4_72 
REMARK   19  A    between atoms: CA4_72  and  C4_74 
REMARK   20  A    between atoms: CA4_72  and  CB4_76 
REMARK       I    between atoms: C4_74  and  N5_85 
REMARK   21  A    between atoms: CB4_76  and  CG5_79 
REMARK   22  A    between atoms: CG5_79  and  CD3_82 
REMARK   23  A    between atoms: N5_85  and  CA5_86 
REMARK   24  A    between atoms: CA5_86  and  C5_88 
REMARK       I    between atoms: C5_88  and  N6_94 
REMARK   25  A    between atoms: N6_94  and  CA6_95 
REMARK   26  A    between atoms: CA6_95  and  C6_97 
REMARK   27  A    between atoms: CA6_95  and  CB6_99 
REMARK       I    between atoms: C6_97  and  N7_112 
REMARK   28  A    between atoms: CB6_99  and  CG6_102 
REMARK   29  A    between atoms: CG6_102  and  CD4_105 
ROOT
HETATM    1  N   0Q4 A 125     -11.202  20.762  28.611  1.00 21.27    -0.067 N 
HETATM    2  H   0Q4 A 125     -11.111  21.672  29.084  1.00 15.00     0.275 HD
HETATM    3  H2  0Q4 A 125     -10.353  20.166  28.780  1.00 15.00     0.275 HD
HETATM    4  HN3 0Q4 A 125     -11.320  20.925  27.598  1.00 15.00     0.275 HD
ENDROOT
BRANCH   1   5
HETATM    5  CA  0Q4 A 125     -12.357  19.981  29.151  1.00 21.76     0.274 C 
BRANCH   5   6
HETATM    6  C   0Q4 A 125     -12.390  18.581  28.457  1.00 21.89     0.249 C 
HETATM    7  O   0Q4 A 125     -13.252  17.741  28.776  1.00 22.48    -0.271 OA
HETATM    8  N1  0Q4 A 125     -11.501  18.372  27.473  1.00 19.10    -0.346 N 
HETATM    9  H1  0Q4 A 125     -10.820  19.042  27.247  1.00 15.00     0.163 HD
BRANCH   8  10
HETATM   10  CA1 0Q4 A 125     -11.445  17.134  26.692  1.00 18.90     0.180 C 
BRANCH  10  11
HETATM   11  C1  0Q4 A 125     -10.203  16.276  27.049  1.00 17.14     0.241 C 
HETATM   12  O1  0Q4 A 125     -10.167  15.065  26.875  1.00 18.87    -0.271 OA
HETATM   13  N2  0Q4 A 125      -9.219  16.907  27.663  1.00 17.78    -0.350 N 
HETATM   14  HN2 0Q4 A 125      -9.306  17.864  27.873  1.00 15.00     0.163 HD
BRANCH  13  15
HETATM   15  CA2 0Q4 A 125      -7.979  16.226  27.987  1.00 17.96     0.123 C 
BRANCH  15  16
HETATM   16  C2  0Q4 A 125      -7.805  15.785  29.434  1.00 17.56     0.081 C 
HETATM   17  N3  0Q4 A 125      -8.413  16.532  30.338  1.00 16.64    -0.387 N 
HETATM   18  H3  0Q4 A 125      -8.917  17.309  30.028  1.00 15.00     0.159 HD
BRANCH  17  19
HETATM   19  CA3 0Q4 A 125      -8.394  16.242  31.777  1.00 16.89     0.177 C 
BRANCH  19  20
HETATM   20  C3  0Q4 A 125      -7.062  16.844  32.303  1.00 15.06     0.241 C 
HETATM   21  O2  0Q4 A 125      -6.823  18.045  32.155  1.00 12.51    -0.271 OA
HETATM   22  N4  0Q4 A 125      -6.271  16.031  33.004  1.00 14.54    -0.346 N 
HETATM   23  H4  0Q4 A 125      -6.499  15.080  33.089  1.00 15.00     0.163 HD
BRANCH  22  24
HETATM   24  CA4 0Q4 A 125      -5.022  16.474  33.629  1.00 15.81     0.177 C 
BRANCH  24  25
HETATM   25  C4  0Q4 A 125      -3.767  16.364  32.757  1.00 17.52     0.241 C 
HETATM   26  O3  0Q4 A 125      -3.702  15.589  31.800  1.00 17.50    -0.271 OA
HETATM   27  N5  0Q4 A 125      -2.712  17.031  33.194  1.00 19.61    -0.346 N 
HETATM   28  H5  0Q4 A 125      -2.761  17.553  34.026  1.00 15.00     0.163 HD
BRANCH  27  29
HETATM   29  CA5 0Q4 A 125      -1.466  17.015  32.458  1.00 21.82     0.172 C 
HETATM   30  CB5 0Q4 A 125      -0.943  18.437  32.370  1.00 22.24     0.042 C 
BRANCH  29  31
HETATM   31  C5  0Q4 A 125      -0.347  16.092  33.002  1.00 24.09     0.240 C 
HETATM   32  O4  0Q4 A 125      -0.405  14.865  32.895  1.00 20.88    -0.271 OA
HETATM   33  N6  0Q4 A 125       0.636  16.725  33.634  1.00 27.66    -0.346 N 
HETATM   34  H6  0Q4 A 125       0.583  17.693  33.706  1.00 15.00     0.163 HD
BRANCH  33  35
HETATM   35  CA6 0Q4 A 125       1.746  16.052  34.295  1.00 31.09     0.176 C 
BRANCH  35  36
HETATM   36  C6  0Q4 A 125       2.253  17.025  35.373  1.00 33.78     0.238 C 
HETATM   37  O5  0Q4 A 125       3.186  16.682  36.157  1.00 34.60    -0.271 OA
HETATM   38  N7  0Q4 A 125       1.670  18.136  35.438  1.00 36.53    -0.368 N 
HETATM   39  H72 0Q4 A 125       0.919  18.412  34.807  1.00  0.00     0.159 HD
HETATM   40  H71 0Q4 A 125       2.006  18.781  36.153  1.00  0.00     0.159 HD
ENDBRANCH  35  36
BRANCH  35  41
HETATM   41  CB6 0Q4 A 125       2.863  15.788  33.252  1.00 32.55     0.035 C 
BRANCH  41  42
HETATM   42  CG6 0Q4 A 125       3.299  16.984  32.334  1.00 32.73     0.002 C 
BRANCH  42  43
HETATM   43  CD4 0Q4 A 125       3.210  16.692  30.785  1.00 31.59    -0.004 C 
HETATM   44  CE  0Q4 A 125       1.850  17.075  30.237  1.00 23.29     0.005 C 
ENDBRANCH  42  43
ENDBRANCH  41  42
ENDBRANCH  35  41
ENDBRANCH  33  35
ENDBRANCH  29  31
ENDBRANCH  27  29
ENDBRANCH  24  25
BRANCH  24  45
HETATM   45  CB4 0Q4 A 125      -4.807  15.690  34.954  1.00 17.07     0.045 C 
BRANCH  45  46
HETATM   46  CG5 0Q4 A 125      -5.277  16.348  36.237  1.00 18.50     0.116 C 
BRANCH  46  47
HETATM   47  CD3 0Q4 A 125      -6.741  16.810  36.177  1.00 26.68     0.172 C 
HETATM   48  OE1 0Q4 A 125      -6.997  17.916  35.666  1.00 29.71    -0.648 OA
HETATM   49  OE2 0Q4 A 125      -7.654  16.074  36.636  1.00 31.35    -0.648 OA
ENDBRANCH  46  47
ENDBRANCH  45  46
ENDBRANCH  24  45
ENDBRANCH  22  24
ENDBRANCH  19  20
BRANCH  19  50
HETATM   50  CB3 0Q4 A 125      -8.564  14.701  31.936  1.00 18.22     0.073 C 
BRANCH  50  51
HETATM   51  CG4 0Q4 A 125      -9.883  14.260  32.435  1.00 21.59    -0.056 A 
HETATM   52  CD1 0Q4 A 125     -10.079  14.002  33.785  1.00 22.99     0.007 A 
HETATM   53  CE1 0Q4 A 125     -11.349  13.623  34.278  1.00 24.00     0.001 A 
HETATM   54  CZ1 0Q4 A 125     -12.434  13.494  33.405  1.00 25.64     0.000 A 
HETATM   55  CE2 0Q4 A 125     -12.248  13.741  32.045  1.00 27.27     0.001 A 
HETATM   56  CD2 0Q4 A 125     -10.960  14.126  31.565  1.00 24.65     0.007 A 
ENDBRANCH  50  51
ENDBRANCH  19  50
ENDBRANCH  17  19
ENDBRANCH  15  16
BRANCH  15  57
HETATM   57  CB2 0Q4 A 125      -6.779  17.064  27.484  1.00 19.32     0.034 C 
BRANCH  57  58
HETATM   58  CG3 0Q4 A 125      -5.957  17.777  28.595  1.00 21.12    -0.020 C 
HETATM   59  CD1 0Q4 A 125      -4.452  17.758  28.332  1.00 21.22     0.009 C 
HETATM   60  CD2 0Q4 A 125      -6.433  19.210  28.753  1.00 17.47     0.009 C 
ENDBRANCH  57  58
ENDBRANCH  15  57
ENDBRANCH  13  15
ENDBRANCH  10  11
BRANCH  10  61
HETATM   61  CB1 0Q4 A 125     -11.588  17.463  25.118  1.00 19.28     0.009 C 
HETATM   62  CG1 0Q4 A 125     -12.124  18.876  24.878  1.00 20.08     0.012 C 
HETATM   63  CG2 0Q4 A 125     -10.221  17.353  24.412  1.00 19.54     0.012 C 
ENDBRANCH  10  61
ENDBRANCH   8  10
ENDBRANCH   5   6
BRANCH   5  64
HETATM   64  CB  0Q4 A 125     -13.647  20.783  28.939  1.00 21.80     0.044 C 
BRANCH  64  65
HETATM   65  CG  0Q4 A 125     -14.475  21.144  30.219  1.00 26.69     0.023 C 
BRANCH  65  66
HETATM   66  CD  0Q4 A 125     -15.183  19.944  30.942  1.00 29.76     0.138 C 
BRANCH  66  67
HETATM   67  NE  0Q4 A 125     -14.790  19.750  32.344  1.00 32.26    -0.227 N 
HETATM   68  CZ  0Q4 A 125     -13.845  18.902  32.759  1.00 34.72     0.665 C 
HETATM   69  NH1 0Q4 A 125     -13.185  18.180  31.869  1.00 35.07    -0.235 N 
HETATM   70  NH2 0Q4 A 125     -13.645  18.682  34.067  1.00 35.86    -0.235 N 
HETATM   71 HH11 0Q4 A 125     -13.388  18.274  30.895  1.00 15.00     0.174 HD
HETATM   72 HH12 0Q4 A 125     -12.475  17.541  32.169  1.00 15.00     0.174 HD
HETATM   73 HH21 0Q4 A 125     -14.200  19.153  34.751  1.00 15.00     0.174 HD
HETATM   74 HH22 0Q4 A 125     -12.932  18.039  34.354  1.00 15.00     0.174 HD
HETATM   75  HE  0Q4 A 125     -15.249  20.276  33.036  1.00 15.00     0.177 HD
ENDBRANCH  66  67
ENDBRANCH  65  66
ENDBRANCH  64  65
ENDBRANCH   5  64
ENDBRANCH   1   5
TORSDOF 29
ENDMDL
MODEL 12
REMARK VINA RESULT:      -7.1      3.504      6.768
REMARK  29 active torsions:
REMARK  status: ('A' for Active; 'I' for Inactive)
REMARK    1  A    between atoms: N_1  and  CA_2 
REMARK    2  A    between atoms: CA_2  and  C_4 
REMARK    3  A    between atoms: CA_2  and  CB_6 
REMARK       I    between atoms: C_4  and  N1_19 
REMARK    4  A    between atoms: CB_6  and  CG_9 
REMARK    5  A    between atoms: CG_9  and  CD_12 
REMARK    6  A    between atoms: CD_12  and  NE_15 
REMARK       I    between atoms: NE_15  and  CZ_16 
REMARK       I    between atoms: CZ_16  and  NH1_17 
REMARK    7  A    between atoms: N1_19  and  CA1_20 
REMARK    8  A    between atoms: CA1_20  and  C1_22 
REMARK    9  A    between atoms: CA1_20  and  CB1_24 
REMARK       I    between atoms: C1_22  and  N2_34 
REMARK   10  A    between atoms: N2_34  and  CA2_35 
REMARK   11  A    between atoms: CA2_35  and  C2_37 
REMARK   12  A    between atoms: CA2_35  and  CB2_39 
REMARK   13  A    between atoms: CB2_39  and  CG3_42 
REMARK   14  A    between atoms: N3_52  and  CA3_53 
REMARK   15  A    between atoms: CA3_53  and  C3_55 
REMARK   16  A    between atoms: CA3_53  and  CB3_57 
REMARK       I    between atoms: C3_55  and  N4_71 
REMARK   17  A    between atoms: CB3_57  and  CG4_60 
REMARK   18  A    between atoms: N4_71  and  CA4_72 
REMARK   19  A    between atoms: CA4_72  and  C4_74 
REMARK   20  A    between atoms: CA4_72  and  CB4_76 
REMARK       I    between atoms: C4_74  and  N5_85 
REMARK   21  A    between atoms: CB4_76  and  CG5_79 
REMARK   22  A    between atoms: CG5_79  and  CD3_82 
REMARK   23  A    between atoms: N5_85  and  CA5_86 
REMARK   24  A    between atoms: CA5_86  and  C5_88 
REMARK       I    between atoms: C5_88  and  N6_94 
REMARK   25  A    between atoms: N6_94  and  CA6_95 
REMARK   26  A    between atoms: CA6_95  and  C6_97 
REMARK   27  A    between atoms: CA6_95  and  CB6_99 
REMARK       I    between atoms: C6_97  and  N7_112 
REMARK   28  A    between atoms: CB6_99  and  CG6_102 
REMARK   29  A    between atoms: CG6_102  and  CD4_105 
ROOT
HETATM    1  N   0Q4 A 125     -12.966  18.187  31.219  1.00 21.27    -0.067 N 
HETATM    2  H   0Q4 A 125     -12.999  17.652  32.098  1.00 15.00     0.275 HD
HETATM    3  H2  0Q4 A 125     -11.974  18.317  30.897  1.00 15.00     0.275 HD
HETATM    4  HN3 0Q4 A 125     -13.407  19.108  31.374  1.00 15.00     0.275 HD
ENDROOT
BRANCH   1   5
HETATM    5  CA  0Q4 A 125     -13.657  17.459  30.110  1.00 21.76     0.274 C 
BRANCH   5   6
HETATM    6  C   0Q4 A 125     -12.586  16.730  29.237  1.00 21.89     0.249 C 
HETATM    7  O   0Q4 A 125     -12.798  15.579  28.813  1.00 22.48    -0.271 OA
HETATM    8  N1  0Q4 A 125     -11.483  17.429  28.922  1.00 19.10    -0.346 N 
HETATM    9  H1  0Q4 A 125     -11.330  18.330  29.280  1.00 15.00     0.163 HD
BRANCH   8  10
HETATM   10  CA1 0Q4 A 125     -10.418  16.904  28.067  1.00 18.90     0.180 C 
BRANCH  10  11
HETATM   11  C1  0Q4 A 125      -9.273  16.260  28.891  1.00 17.14     0.241 C 
HETATM   12  O1  0Q4 A 125      -9.204  15.055  29.096  1.00 18.87    -0.271 OA
HETATM   13  N2  0Q4 A 125      -8.430  17.099  29.467  1.00 17.78    -0.350 N 
HETATM   14  HN2 0Q4 A 125      -8.556  18.068  29.362  1.00 15.00     0.163 HD
BRANCH  13  15
HETATM   15  CA2 0Q4 A 125      -7.281  16.614  30.208  1.00 17.96     0.123 C 
BRANCH  15  16
HETATM   16  C2  0Q4 A 125      -7.485  16.378  31.699  1.00 17.56     0.081 C 
HETATM   17  N3  0Q4 A 125      -7.969  15.195  32.031  1.00 16.64    -0.387 N 
HETATM   18  H3  0Q4 A 125      -8.171  14.564  31.314  1.00 15.00     0.159 HD
BRANCH  17  19
HETATM   19  CA3 0Q4 A 125      -8.194  14.770  33.418  1.00 16.89     0.177 C 
BRANCH  19  20
HETATM   20  C3  0Q4 A 125      -9.584  14.075  33.416  1.00 15.06     0.241 C 
HETATM   21  O2  0Q4 A 125      -9.681  12.883  33.115  1.00 12.51    -0.271 OA
HETATM   22  N4  0Q4 A 125     -10.615  14.794  33.861  1.00 14.54    -0.346 N 
HETATM   23  H4  0Q4 A 125     -10.491  15.742  34.084  1.00 15.00     0.163 HD
BRANCH  22  24
HETATM   24  CA4 0Q4 A 125     -11.970  14.252  33.992  1.00 15.81     0.177 C 
BRANCH  24  25
HETATM   25  C4  0Q4 A 125     -13.109  15.222  33.665  1.00 17.52     0.241 C 
HETATM   26  O3  0Q4 A 125     -12.923  16.437  33.563  1.00 17.50    -0.271 OA
HETATM   27  N5  0Q4 A 125     -14.322  14.694  33.660  1.00 19.61    -0.346 N 
HETATM   28  H5  0Q4 A 125     -14.450  13.740  33.858  1.00 15.00     0.163 HD
BRANCH  27  29
HETATM   29  CA5 0Q4 A 125     -15.483  15.503  33.359  1.00 21.82     0.172 C 
HETATM   30  CB5 0Q4 A 125     -16.445  14.671  32.532  1.00 22.24     0.042 C 
BRANCH  29  31
HETATM   31  C5  0Q4 A 125     -16.241  16.112  34.565  1.00 24.09     0.240 C 
HETATM   32  O4  0Q4 A 125     -17.450  15.942  34.729  1.00 20.88    -0.271 OA
HETATM   33  N6  0Q4 A 125     -15.495  16.870  35.362  1.00 27.66    -0.346 N 
HETATM   34  H6  0Q4 A 125     -14.555  16.983  35.137  1.00 15.00     0.163 HD
BRANCH  33  35
HETATM   35  CA6 0Q4 A 125     -16.014  17.607  36.506  1.00 31.09     0.176 C 
BRANCH  35  36
HETATM   36  C6  0Q4 A 125     -16.305  19.030  36.000  1.00 33.78     0.238 C 
HETATM   37  O5  0Q4 A 125     -15.745  19.463  34.950  1.00 34.60    -0.271 OA
HETATM   38  N7  0Q4 A 125     -17.086  19.721  36.700  1.00 36.53    -0.368 N 
HETATM   39  H72 0Q4 A 125     -17.538  19.373  37.545  1.00  0.00     0.159 HD
HETATM   40  H71 0Q4 A 125     -17.278  20.665  36.364  1.00  0.00     0.159 HD
ENDBRANCH  35  36
BRANCH  35  41
HETATM   41  CB6 0Q4 A 125     -14.925  17.649  37.609  1.00 32.55     0.035 C 
BRANCH  41  42
HETATM   42  CG6 0Q4 A 125     -15.376  17.376  39.088  1.00 32.73     0.002 C 
BRANCH  42  43
HETATM   43  CD4 0Q4 A 125     -14.858  18.434  40.140  1.00 31.59    -0.004 C 
HETATM   44  CE  0Q4 A 125     -13.607  19.127  39.642  1.00 23.29     0.005 C 
ENDBRANCH  42  43
ENDBRANCH  41  42
ENDBRANCH  35  41
ENDBRANCH  33  35
ENDBRANCH  29  31
ENDBRANCH  27  29
ENDBRANCH  24  25
BRANCH  24  45
HETATM   45  CB4 0Q4 A 125     -12.159  13.691  35.430  1.00 17.07     0.045 C 
BRANCH  45  46
HETATM   46  CG5 0Q4 A 125     -12.627  14.660  36.499  1.00 18.50     0.116 C 
BRANCH  46  47
HETATM   47  CD3 0Q4 A 125     -13.799  14.119  37.333  1.00 26.68     0.172 C 
HETATM   48  OE1 0Q4 A 125     -14.952  14.211  36.872  1.00 29.71    -0.648 OA
HETATM   49  OE2 0Q4 A 125     -13.584  13.592  38.456  1.00 31.35    -0.648 OA
ENDBRANCH  46  47
ENDBRANCH  45  46
ENDBRANCH  24  45
ENDBRANCH  22  24
ENDBRANCH  19  20
BRANCH  19  50
HETATM   50  CB3 0Q4 A 125      -8.059  16.038  34.314  1.00 18.22     0.073 C 
BRANCH  50  51
HETATM   51  CG4 0Q4 A 125      -7.056  15.942  35.395  1.00 21.59    -0.056 A 
HETATM   52  CD1 0Q4 A 125      -5.757  15.534  35.123  1.00 22.99     0.007 A 
HETATM   53  CE1 0Q4 A 125      -4.780  15.483  36.143  1.00 24.00     0.001 A 
HETATM   54  CZ1 0Q4 A 125      -5.112  15.838  37.455  1.00 25.64     0.000 A 
HETATM   55  CE2 0Q4 A 125      -6.415  16.240  37.743  1.00 27.27     0.001 A 
HETATM   56  CD2 0Q4 A 125      -7.389  16.289  36.700  1.00 24.65     0.007 A 
ENDBRANCH  50  51
ENDBRANCH  19  50
ENDBRANCH  17  19
ENDBRANCH  15  16
BRANCH  15  57
HETATM   57  CB2 0Q4 A 125      -6.059  17.520  29.923  1.00 19.32     0.034 C 
BRANCH  57  58
HETATM   58  CG3 0Q4 A 125      -5.026  16.943  28.914  1.00 21.12    -0.020 C 
HETATM   59  CD1 0Q4 A 125      -3.700  17.701  28.913  1.00 21.22     0.009 C 
HETATM   60  CD2 0Q4 A 125      -4.779  15.475  29.208  1.00 17.47     0.009 C 
ENDBRANCH  57  58
ENDBRANCH  15  57
ENDBRANCH  13  15
ENDBRANCH  10  11
BRANCH  10  61
HETATM   61  CB1 0Q4 A 125      -9.925  18.040  27.031  1.00 19.28     0.009 C 
HETATM   62  CG1 0Q4 A 125      -8.955  17.478  25.989  1.00 20.08     0.012 C 
HETATM   63  CG2 0Q4 A 125     -11.125  18.646  26.275  1.00 19.54     0.012 C 
ENDBRANCH  10  61
ENDBRANCH   8  10
ENDBRANCH   5   6
BRANCH   5  64
HETATM   64  CB  0Q4 A 125     -14.504  18.456  29.309  1.00 21.80     0.044 C 
BRANCH  64  65
HETATM   65  CG  0Q4 A 125     -15.329  19.505  30.129  1.00 26.69     0.023 C 
BRANCH  65  66
HETATM   66  CD  0Q4 A 125     -14.903  21.005  29.955  1.00 29.76     0.138 C 
BRANCH  66  67
HETATM   67  NE  0Q4 A 125     -13.720  21.216  29.110  1.00 32.26    -0.227 N 
HETATM   68  CZ  0Q4 A 125     -12.493  21.474  29.570  1.00 34.72     0.665 C 
HETATM   69  NH1 0Q4 A 125     -12.288  21.535  30.875  1.00 35.07    -0.235 N 
HETATM   70  NH2 0Q4 A 125     -11.497  21.793  28.730  1.00 35.86    -0.235 N 
HETATM   71 HH11 0Q4 A 125     -13.045  21.385  31.510  1.00 15.00     0.174 HD
HETATM   72 HH12 0Q4 A 125     -11.372  21.728  31.231  1.00 15.00     0.174 HD
HETATM   73 HH21 0Q4 A 125     -11.659  21.840  27.746  1.00 15.00     0.174 HD
HETATM   74 HH22 0Q4 A 125     -10.585  21.985  29.098  1.00 15.00     0.174 HD
HETATM   75  HE  0Q4 A 125     -13.827  21.168  28.134  1.00 15.00     0.177 HD
ENDBRANCH  66  67
ENDBRANCH  65  66
ENDBRANCH  64  65
ENDBRANCH   5  64
ENDBRANCH   1   5
TORSDOF 29
ENDMDL
MODEL 13
REMARK VINA RESULT:      -7.1      3.933     12.345
REMARK  29 active torsions:
REMARK  status: ('A' for Active; 'I' for Inactive)
REMARK    1  A    between atoms: N_1  and  CA_2 
REMARK    2  A    between atoms: CA_2  and  C_4 
REMARK    3  A    between atoms: CA_2  and  CB_6 
REMARK       I    between atoms: C_4  and  N1_19 
REMARK    4  A    between atoms: CB_6  and  CG_9 
REMARK    5  A    between atoms: CG_9  and  CD_12 
REMARK    6  A    between atoms: CD_12  and  NE_15 
REMARK       I    between atoms: NE_15  and  CZ_16 
REMARK       I    between atoms: CZ_16  and  NH1_17 
REMARK    7  A    between atoms: N1_19  and  CA1_20 
REMARK    8  A    between atoms: CA1_20  and  C1_22 
REMARK    9  A    between atoms: CA1_20  and  CB1_24 
REMARK       I    between atoms: C1_22  and  N2_34 
REMARK   10  A    between atoms: N2_34  and  CA2_35 
REMARK   11  A    between atoms: CA2_35  and  C2_37 
REMARK   12  A    between atoms: CA2_35  and  CB2_39 
REMARK   13  A    between atoms: CB2_39  and  CG3_42 
REMARK   14  A    between atoms: N3_52  and  CA3_53 
REMARK   15  A    between atoms: CA3_53  and  C3_55 
REMARK   16  A    between atoms: CA3_53  and  CB3_57 
REMARK       I    between atoms: C3_55  and  N4_71 
REMARK   17  A    between atoms: CB3_57  and  CG4_60 
REMARK   18  A    between atoms: N4_71  and  CA4_72 
REMARK   19  A    between atoms: CA4_72  and  C4_74 
REMARK   20  A    between atoms: CA4_72  and  CB4_76 
REMARK       I    between atoms: C4_74  and  N5_85 
REMARK   21  A    between atoms: CB4_76  and  CG5_79 
REMARK   22  A    between atoms: CG5_79  and  CD3_82 
REMARK   23  A    between atoms: N5_85  and  CA5_86 
REMARK   24  A    between atoms: CA5_86  and  C5_88 
REMARK       I    between atoms: C5_88  and  N6_94 
REMARK   25  A    between atoms: N6_94  and  CA6_95 
REMARK   26  A    between atoms: CA6_95  and  C6_97 
REMARK   27  A    between atoms: CA6_95  and  CB6_99 
REMARK       I    between atoms: C6_97  and  N7_112 
REMARK   28  A    between atoms: CB6_99  and  CG6_102 
REMARK   29  A    between atoms: CG6_102  and  CD4_105 
ROOT
HETATM    1  N   0Q4 A 125     -10.849  20.139  28.615  1.00 21.27    -0.067 N 
HETATM    2  H   0Q4 A 125     -10.562  19.627  29.461  1.00 15.00     0.275 HD
HETATM    3  H2  0Q4 A 125     -11.302  19.492  27.921  1.00 15.00     0.275 HD
HETATM    4  HN3 0Q4 A 125     -10.014  20.575  28.192  1.00 15.00     0.275 HD
ENDROOT
BRANCH   1   5
HETATM    5  CA  0Q4 A 125     -11.877  21.179  28.928  1.00 21.76     0.274 C 
BRANCH   5   6
HETATM    6  C   0Q4 A 125     -12.681  20.732  30.191  1.00 21.89     0.249 C 
HETATM    7  O   0Q4 A 125     -12.994  21.563  31.064  1.00 22.48    -0.271 OA
HETATM    8  N1  0Q4 A 125     -13.065  19.446  30.241  1.00 19.10    -0.346 N 
HETATM    9  H1  0Q4 A 125     -12.794  18.804  29.549  1.00 15.00     0.163 HD
BRANCH   8  10
HETATM   10  CA1 0Q4 A 125     -13.871  18.890  31.329  1.00 18.90     0.180 C 
BRANCH  10  11
HETATM   11  C1  0Q4 A 125     -13.055  17.918  32.220  1.00 17.14     0.241 C 
HETATM   12  O1  0Q4 A 125     -13.018  18.015  33.440  1.00 18.87    -0.271 OA
HETATM   13  N2  0Q4 A 125     -12.300  17.041  31.582  1.00 17.78    -0.350 N 
HETATM   14  HN2 0Q4 A 125     -12.277  17.039  30.599  1.00 15.00     0.163 HD
BRANCH  13  15
HETATM   15  CA2 0Q4 A 125     -11.545  16.036  32.307  1.00 17.96     0.123 C 
BRANCH  15  16
HETATM   16  C2  0Q4 A 125     -10.299  15.496  31.617  1.00 17.56     0.081 C 
HETATM   17  N3  0Q4 A 125      -9.179  16.154  31.858  1.00 16.64    -0.387 N 
HETATM   18  H3  0Q4 A 125      -9.222  16.934  32.443  1.00 15.00     0.159 HD
BRANCH  17  19
HETATM   19  CA3 0Q4 A 125      -7.873  15.759  31.317  1.00 16.89     0.177 C 
BRANCH  19  20
HETATM   20  C3  0Q4 A 125      -6.827  16.575  32.126  1.00 15.06     0.241 C 
HETATM   21  O2  0Q4 A 125      -7.045  17.756  32.408  1.00 12.51    -0.271 OA
HETATM   22  N4  0Q4 A 125      -5.767  15.907  32.582  1.00 14.54    -0.346 N 
HETATM   23  H4  0Q4 A 125      -5.633  14.969  32.327  1.00 15.00     0.163 HD
BRANCH  22  24
HETATM   24  CA4 0Q4 A 125      -4.737  16.521  33.424  1.00 15.81     0.177 C 
BRANCH  24  25
HETATM   25  C4  0Q4 A 125      -3.295  16.360  32.934  1.00 17.52     0.241 C 
HETATM   26  O3  0Q4 A 125      -2.626  15.357  33.191  1.00 17.50    -0.271 OA
HETATM   27  N5  0Q4 A 125      -2.767  17.429  32.361  1.00 19.61    -0.346 N 
HETATM   28  H5  0Q4 A 125      -3.290  18.256  32.272  1.00 15.00     0.163 HD
BRANCH  27  29
HETATM   29  CA5 0Q4 A 125      -1.413  17.405  31.849  1.00 21.82     0.172 C 
HETATM   30  CB5 0Q4 A 125      -1.341  18.322  30.643  1.00 22.24     0.042 C 
BRANCH  29  31
HETATM   31  C5  0Q4 A 125      -0.285  17.778  32.843  1.00 24.09     0.240 C 
HETATM   32  O4  0Q4 A 125       0.211  18.906  32.872  1.00 20.88    -0.271 OA
HETATM   33  N6  0Q4 A 125       0.133  16.776  33.609  1.00 27.66    -0.346 N 
HETATM   34  H6  0Q4 A 125      -0.287  15.907  33.493  1.00 15.00     0.163 HD
BRANCH  33  35
HETATM   35  CA6 0Q4 A 125       1.238  16.878  34.553  1.00 31.09     0.176 C 
BRANCH  35  36
HETATM   36  C6  0Q4 A 125       2.511  16.547  33.756  1.00 33.78     0.238 C 
HETATM   37  O5  0Q4 A 125       2.606  15.454  33.125  1.00 34.60    -0.271 OA
HETATM   38  N7  0Q4 A 125       3.435  17.397  33.805  1.00 36.53    -0.368 N 
HETATM   39  H72 0Q4 A 125       3.360  18.278  34.314  1.00  0.00     0.159 HD
HETATM   40  H71 0Q4 A 125       4.279  17.178  33.277  1.00  0.00     0.159 HD
ENDBRANCH  35  36
BRANCH  35  41
HETATM   41  CB6 0Q4 A 125       1.030  15.832  35.679  1.00 32.55     0.035 C 
BRANCH  41  42
HETATM   42  CG6 0Q4 A 125       0.476  16.344  37.054  1.00 32.73     0.002 C 
BRANCH  42  43
HETATM   43  CD4 0Q4 A 125       1.555  16.446  38.203  1.00 31.59    -0.004 C 
HETATM   44  CE  0Q4 A 125       2.501  17.604  37.959  1.00 23.29     0.005 C 
ENDBRANCH  42  43
ENDBRANCH  41  42
ENDBRANCH  35  41
ENDBRANCH  33  35
ENDBRANCH  29  31
ENDBRANCH  27  29
ENDBRANCH  24  25
BRANCH  24  45
HETATM   45  CB4 0Q4 A 125      -4.861  15.966  34.871  1.00 17.07     0.045 C 
BRANCH  45  46
HETATM   46  CG5 0Q4 A 125      -6.247  15.579  35.352  1.00 18.50     0.116 C 
BRANCH  46  47
HETATM   47  CD3 0Q4 A 125      -6.922  16.673  36.191  1.00 26.68     0.172 C 
HETATM   48  OE1 0Q4 A 125      -7.055  17.808  35.698  1.00 29.71    -0.648 OA
HETATM   49  OE2 0Q4 A 125      -7.333  16.414  37.353  1.00 31.35    -0.648 OA
ENDBRANCH  46  47
ENDBRANCH  45  46
ENDBRANCH  24  45
ENDBRANCH  22  24
ENDBRANCH  19  20
BRANCH  19  50
HETATM   50  CB3 0Q4 A 125      -7.914  16.021  29.782  1.00 18.22     0.073 C 
BRANCH  50  51
HETATM   51  CG4 0Q4 A 125      -6.699  16.644  29.216  1.00 21.59    -0.056 A 
HETATM   52  CD1 0Q4 A 125      -6.654  18.008  28.964  1.00 22.99     0.007 A 
HETATM   53  CE1 0Q4 A 125      -5.480  18.618  28.465  1.00 24.00     0.001 A 
HETATM   54  CZ1 0Q4 A 125      -4.340  17.849  28.209  1.00 25.64     0.000 A 
HETATM   55  CE2 0Q4 A 125      -4.376  16.476  28.449  1.00 27.27     0.001 A 
HETATM   56  CD2 0Q4 A 125      -5.568  15.877  28.956  1.00 24.65     0.007 A 
ENDBRANCH  50  51
ENDBRANCH  19  50
ENDBRANCH  17  19
ENDBRANCH  15  16
BRANCH  15  57
HETATM   57  CB2 0Q4 A 125     -12.494  14.904  32.768  1.00 19.32     0.034 C 
BRANCH  57  58
HETATM   58  CG3 0Q4 A 125     -11.816  13.756  33.569  1.00 21.12    -0.020 C 
HETATM   59  CD1 0Q4 A 125     -12.162  13.779  35.057  1.00 21.22     0.009 C 
HETATM   60  CD2 0Q4 A 125     -12.197  12.413  32.974  1.00 17.47     0.009 C 
ENDBRANCH  57  58
ENDBRANCH  15  57
ENDBRANCH  13  15
ENDBRANCH  10  11
BRANCH  10  61
HETATM   61  CB1 0Q4 A 125     -15.236  18.259  30.745  1.00 19.28     0.009 C 
HETATM   62  CG1 0Q4 A 125     -16.312  19.327  30.534  1.00 20.08     0.012 C 
HETATM   63  CG2 0Q4 A 125     -14.983  17.575  29.386  1.00 19.54     0.012 C 
ENDBRANCH  10  61
ENDBRANCH   8  10
ENDBRANCH   5   6
BRANCH   5  64
HETATM   64  CB  0Q4 A 125     -12.766  21.390  27.697  1.00 21.80     0.044 C 
BRANCH  64  65
HETATM   65  CG  0Q4 A 125     -12.201  20.897  26.321  1.00 26.69     0.023 C 
BRANCH  65  66
HETATM   66  CD  0Q4 A 125     -13.174  21.013  25.095  1.00 29.76     0.138 C 
BRANCH  66  67
HETATM   67  NE  0Q4 A 125     -14.602  20.935  25.431  1.00 32.26    -0.227 N 
HETATM   68  CZ  0Q4 A 125     -15.303  19.802  25.515  1.00 34.72     0.665 C 
HETATM   69  NH1 0Q4 A 125     -14.697  18.646  25.301  1.00 35.07    -0.235 N 
HETATM   70  NH2 0Q4 A 125     -16.633  19.828  25.688  1.00 35.86    -0.235 N 
HETATM   71 HH11 0Q4 A 125     -13.723  18.622  25.084  1.00 15.00     0.174 HD
HETATM   72 HH12 0Q4 A 125     -15.214  17.790  25.361  1.00 15.00     0.174 HD
HETATM   73 HH21 0Q4 A 125     -17.118  20.698  25.761  1.00 15.00     0.174 HD
HETATM   74 HH22 0Q4 A 125     -17.139  18.965  25.746  1.00 15.00     0.174 HD
HETATM   75  HE  0Q4 A 125     -15.087  21.772  25.608  1.00 15.00     0.177 HD
ENDBRANCH  66  67
ENDBRANCH  65  66
ENDBRANCH  64  65
ENDBRANCH   5  64
ENDBRANCH   1   5
TORSDOF 29
ENDMDL
MODEL 14
REMARK VINA RESULT:      -7.0      4.150     11.225
REMARK  29 active torsions:
REMARK  status: ('A' for Active; 'I' for Inactive)
REMARK    1  A    between atoms: N_1  and  CA_2 
REMARK    2  A    between atoms: CA_2  and  C_4 
REMARK    3  A    between atoms: CA_2  and  CB_6 
REMARK       I    between atoms: C_4  and  N1_19 
REMARK    4  A    between atoms: CB_6  and  CG_9 
REMARK    5  A    between atoms: CG_9  and  CD_12 
REMARK    6  A    between atoms: CD_12  and  NE_15 
REMARK       I    between atoms: NE_15  and  CZ_16 
REMARK       I    between atoms: CZ_16  and  NH1_17 
REMARK    7  A    between atoms: N1_19  and  CA1_20 
REMARK    8  A    between atoms: CA1_20  and  C1_22 
REMARK    9  A    between atoms: CA1_20  and  CB1_24 
REMARK       I    between atoms: C1_22  and  N2_34 
REMARK   10  A    between atoms: N2_34  and  CA2_35 
REMARK   11  A    between atoms: CA2_35  and  C2_37 
REMARK   12  A    between atoms: CA2_35  and  CB2_39 
REMARK   13  A    between atoms: CB2_39  and  CG3_42 
REMARK   14  A    between atoms: N3_52  and  CA3_53 
REMARK   15  A    between atoms: CA3_53  and  C3_55 
REMARK   16  A    between atoms: CA3_53  and  CB3_57 
REMARK       I    between atoms: C3_55  and  N4_71 
REMARK   17  A    between atoms: CB3_57  and  CG4_60 
REMARK   18  A    between atoms: N4_71  and  CA4_72 
REMARK   19  A    between atoms: CA4_72  and  C4_74 
REMARK   20  A    between atoms: CA4_72  and  CB4_76 
REMARK       I    between atoms: C4_74  and  N5_85 
REMARK   21  A    between atoms: CB4_76  and  CG5_79 
REMARK   22  A    between atoms: CG5_79  and  CD3_82 
REMARK   23  A    between atoms: N5_85  and  CA5_86 
REMARK   24  A    between atoms: CA5_86  and  C5_88 
REMARK       I    between atoms: C5_88  and  N6_94 
REMARK   25  A    between atoms: N6_94  and  CA6_95 
REMARK   26  A    between atoms: CA6_95  and  C6_97 
REMARK   27  A    between atoms: CA6_95  and  CB6_99 
REMARK       I    between atoms: C6_97  and  N7_112 
REMARK   28  A    between atoms: CB6_99  and  CG6_102 
REMARK   29  A    between atoms: CG6_102  and  CD4_105 
ROOT
HETATM    1  N   0Q4 A 125     -11.311  17.710  25.320  1.00 21.27    -0.067 N 
HETATM    2  H   0Q4 A 125     -11.469  16.699  25.433  1.00 15.00     0.275 HD
HETATM    3  H2  0Q4 A 125     -12.201  18.248  25.477  1.00 15.00     0.275 HD
HETATM    4  HN3 0Q4 A 125     -10.960  17.887  24.366  1.00 15.00     0.275 HD
ENDROOT
BRANCH   1   5
HETATM    5  CA  0Q4 A 125     -10.344  18.228  26.336  1.00 21.76     0.274 C 
BRANCH   5   6
HETATM    6  C   0Q4 A 125      -9.031  17.384  26.262  1.00 21.89     0.249 C 
HETATM    7  O   0Q4 A 125      -7.934  17.943  26.073  1.00 22.48    -0.271 OA
HETATM    8  N1  0Q4 A 125      -9.146  16.064  26.479  1.00 19.10    -0.346 N 
HETATM    9  H1  0Q4 A 125     -10.022  15.643  26.612  1.00 15.00     0.163 HD
BRANCH   8  10
HETATM   10  CA1 0Q4 A 125      -8.002  15.151  26.499  1.00 18.90     0.180 C 
BRANCH  10  11
HETATM   11  C1  0Q4 A 125      -7.240  15.201  27.848  1.00 17.14     0.241 C 
HETATM   12  O1  0Q4 A 125      -6.930  14.192  28.469  1.00 18.87    -0.271 OA
HETATM   13  N2  0Q4 A 125      -7.042  16.403  28.359  1.00 17.78    -0.350 N 
HETATM   14  HN2 0Q4 A 125      -7.378  17.197  27.886  1.00 15.00     0.163 HD
BRANCH  13  15
HETATM   15  CA2 0Q4 A 125      -6.283  16.581  29.583  1.00 17.96     0.123 C 
BRANCH  15  16
HETATM   16  C2  0Q4 A 125      -7.074  16.989  30.819  1.00 17.56     0.081 C 
HETATM   17  N3  0Q4 A 125      -7.245  16.046  31.727  1.00 16.64    -0.387 N 
HETATM   18  H3  0Q4 A 125      -6.870  15.162  31.548  1.00 15.00     0.159 HD
BRANCH  17  19
HETATM   19  CA3 0Q4 A 125      -7.943  16.262  33.000  1.00 16.89     0.177 C 
BRANCH  19  20
HETATM   20  C3  0Q4 A 125      -6.883  16.884  33.952  1.00 15.06     0.241 C 
HETATM   21  O2  0Q4 A 125      -7.160  17.883  34.620  1.00 12.51    -0.271 OA
HETATM   22  N4  0Q4 A 125      -5.733  16.222  34.083  1.00 14.54    -0.346 N 
HETATM   23  H4  0Q4 A 125      -5.555  15.435  33.525  1.00 15.00     0.163 HD
BRANCH  22  24
HETATM   24  CA4 0Q4 A 125      -4.671  16.642  35.001  1.00 15.81     0.177 C 
BRANCH  24  25
HETATM   25  C4  0Q4 A 125      -3.304  16.905  34.361  1.00 17.52     0.241 C 
HETATM   26  O3  0Q4 A 125      -2.429  17.558  34.933  1.00 17.50    -0.271 OA
HETATM   27  N5  0Q4 A 125      -3.186  16.525  33.099  1.00 19.61    -0.346 N 
HETATM   28  H5  0Q4 A 125      -3.942  16.107  32.632  1.00 15.00     0.163 HD
BRANCH  27  29
HETATM   29  CA5 0Q4 A 125      -1.943  16.711  32.381  1.00 21.82     0.172 C 
HETATM   30  CB5 0Q4 A 125      -1.567  18.179  32.446  1.00 22.24     0.042 C 
BRANCH  29  31
HETATM   31  C5  0Q4 A 125      -0.738  15.853  32.839  1.00 24.09     0.240 C 
HETATM   32  O4  0Q4 A 125      -0.676  14.642  32.614  1.00 20.88    -0.271 OA
HETATM   33  N6  0Q4 A 125       0.182  16.515  33.533  1.00 27.66    -0.346 N 
HETATM   34  H6  0Q4 A 125       0.035  17.462  33.698  1.00 15.00     0.163 HD
BRANCH  33  35
HETATM   35  CA6 0Q4 A 125       1.355  15.893  34.132  1.00 31.09     0.176 C 
BRANCH  35  36
HETATM   36  C6  0Q4 A 125       1.259  16.166  35.642  1.00 33.78     0.238 C 
HETATM   37  O5  0Q4 A 125       1.879  15.433  36.467  1.00 34.60    -0.271 OA
HETATM   38  N7  0Q4 A 125       0.516  17.118  35.989  1.00 36.53    -0.368 N 
HETATM   39  H72 0Q4 A 125       0.017  17.710  35.325  1.00  0.00     0.159 HD
HETATM   40  H71 0Q4 A 125       0.452  17.300  36.990  1.00  0.00     0.159 HD
ENDBRANCH  35  36
BRANCH  35  41
HETATM   41  CB6 0Q4 A 125       2.627  16.564  33.551  1.00 32.55     0.035 C 
BRANCH  41  42
HETATM   42  CG6 0Q4 A 125       3.423  15.782  32.448  1.00 32.73     0.002 C 
BRANCH  42  43
HETATM   43  CD4 0Q4 A 125       3.592  16.560  31.083  1.00 31.59    -0.004 C 
HETATM   44  CE  0Q4 A 125       2.250  17.017  30.549  1.00 23.29     0.005 C 
ENDBRANCH  42  43
ENDBRANCH  41  42
ENDBRANCH  35  41
ENDBRANCH  33  35
ENDBRANCH  29  31
ENDBRANCH  27  29
ENDBRANCH  24  25
BRANCH  24  45
HETATM   45  CB4 0Q4 A 125      -4.522  15.583  36.130  1.00 17.07     0.045 C 
BRANCH  45  46
HETATM   46  CG5 0Q4 A 125      -4.967  15.983  37.523  1.00 18.50     0.116 C 
BRANCH  46  47
HETATM   47  CD3 0Q4 A 125      -6.477  16.246  37.623  1.00 26.68     0.172 C 
HETATM   48  OE1 0Q4 A 125      -7.247  15.587  36.898  1.00 29.71    -0.648 OA
HETATM   49  OE2 0Q4 A 125      -6.917  17.110  38.427  1.00 31.35    -0.648 OA
ENDBRANCH  46  47
ENDBRANCH  45  46
ENDBRANCH  24  45
ENDBRANCH  22  24
ENDBRANCH  19  20
BRANCH  19  50
HETATM   50  CB3 0Q4 A 125      -8.539  14.890  33.436  1.00 18.22     0.073 C 
BRANCH  50  51
HETATM   51  CG4 0Q4 A 125      -9.991  14.733  33.213  1.00 21.59    -0.056 A 
HETATM   52  CD1 0Q4 A 125     -10.705  15.684  32.495  1.00 22.99     0.007 A 
HETATM   53  CE1 0Q4 A 125     -12.085  15.520  32.239  1.00 24.00     0.001 A 
HETATM   54  CZ1 0Q4 A 125     -12.761  14.391  32.715  1.00 25.64     0.000 A 
HETATM   55  CE2 0Q4 A 125     -12.058  13.434  33.446  1.00 27.27     0.001 A 
HETATM   56  CD2 0Q4 A 125     -10.663  13.614  33.692  1.00 24.65     0.007 A 
ENDBRANCH  50  51
ENDBRANCH  19  50
ENDBRANCH  17  19
ENDBRANCH  15  16
BRANCH  15  57
HETATM   57  CB2 0Q4 A 125      -5.084  17.525  29.319  1.00 19.32     0.034 C 
BRANCH  57  58
HETATM   58  CG3 0Q4 A 125      -3.833  16.848  28.691  1.00 21.12    -0.020 C 
HETATM   59  CD1 0Q4 A 125      -2.551  17.655  28.892  1.00 21.22     0.009 C 
HETATM   60  CD2 0Q4 A 125      -3.657  15.453  29.262  1.00 17.47     0.009 C 
ENDBRANCH  57  58
ENDBRANCH  15  57
ENDBRANCH  13  15
ENDBRANCH  10  11
BRANCH  10  61
HETATM   61  CB1 0Q4 A 125      -7.068  15.403  25.206  1.00 19.28     0.009 C 
HETATM   62  CG1 0Q4 A 125      -5.589  15.510  25.585  1.00 20.08     0.012 C 
HETATM   63  CG2 0Q4 A 125      -7.211  14.246  24.196  1.00 19.54     0.012 C 
ENDBRANCH  10  61
ENDBRANCH   8  10
ENDBRANCH   5   6
BRANCH   5  64
HETATM   64  CB  0Q4 A 125     -11.002  18.188  27.721  1.00 21.80     0.044 C 
BRANCH  64  65
HETATM   65  CG  0Q4 A 125     -12.518  18.580  27.796  1.00 26.69     0.023 C 
BRANCH  65  66
HETATM   66  CD  0Q4 A 125     -12.826  20.110  27.962  1.00 29.76     0.138 C 
BRANCH  66  67
HETATM   67  NE  0Q4 A 125     -13.575  20.460  29.176  1.00 32.26    -0.227 N 
HETATM   68  CZ  0Q4 A 125     -13.070  21.132  30.214  1.00 34.72     0.665 C 
HETATM   69  NH1 0Q4 A 125     -11.813  21.540  30.174  1.00 35.07    -0.235 N 
HETATM   70  NH2 0Q4 A 125     -13.780  21.288  31.342  1.00 35.86    -0.235 N 
HETATM   71 HH11 0Q4 A 125     -11.249  21.351  29.372  1.00 15.00     0.174 HD
HETATM   72 HH12 0Q4 A 125     -11.425  22.044  30.948  1.00 15.00     0.174 HD
HETATM   73 HH21 0Q4 A 125     -14.699  20.906  31.419  1.00 15.00     0.174 HD
HETATM   74 HH22 0Q4 A 125     -13.380  21.793  32.109  1.00 15.00     0.174 HD
HETATM   75  HE  0Q4 A 125     -14.517  20.185  29.240  1.00 15.00     0.177 HD
ENDBRANCH  66  67
ENDBRANCH  65  66
ENDBRANCH  64  65
ENDBRANCH   5  64
ENDBRANCH   1   5
TORSDOF 29
ENDMDL
MODEL 15
REMARK VINA RESULT:      -7.0      3.145      6.357
REMARK  29 active torsions:
REMARK  status: ('A' for Active; 'I' for Inactive)
REMARK    1  A    between atoms: N_1  and  CA_2 
REMARK    2  A    between atoms: CA_2  and  C_4 
REMARK    3  A    between atoms: CA_2  and  CB_6 
REMARK       I    between atoms: C_4  and  N1_19 
REMARK    4  A    between atoms: CB_6  and  CG_9 
REMARK    5  A    between atoms: CG_9  and  CD_12 
REMARK    6  A    between atoms: CD_12  and  NE_15 
REMARK       I    between atoms: NE_15  and  CZ_16 
REMARK       I    between atoms: CZ_16  and  NH1_17 
REMARK    7  A    between atoms: N1_19  and  CA1_20 
REMARK    8  A    between atoms: CA1_20  and  C1_22 
REMARK    9  A    between atoms: CA1_20  and  CB1_24 
REMARK       I    between atoms: C1_22  and  N2_34 
REMARK   10  A    between atoms: N2_34  and  CA2_35 
REMARK   11  A    between atoms: CA2_35  and  C2_37 
REMARK   12  A    between atoms: CA2_35  and  CB2_39 
REMARK   13  A    between atoms: CB2_39  and  CG3_42 
REMARK   14  A    between atoms: N3_52  and  CA3_53 
REMARK   15  A    between atoms: CA3_53  and  C3_55 
REMARK   16  A    between atoms: CA3_53  and  CB3_57 
REMARK       I    between atoms: C3_55  and  N4_71 
REMARK   17  A    between atoms: CB3_57  and  CG4_60 
REMARK   18  A    between atoms: N4_71  and  CA4_72 
REMARK   19  A    between atoms: CA4_72  and  C4_74 
REMARK   20  A    between atoms: CA4_72  and  CB4_76 
REMARK       I    between atoms: C4_74  and  N5_85 
REMARK   21  A    between atoms: CB4_76  and  CG5_79 
REMARK   22  A    between atoms: CG5_79  and  CD3_82 
REMARK   23  A    between atoms: N5_85  and  CA5_86 
REMARK   24  A    between atoms: CA5_86  and  C5_88 
REMARK       I    between atoms: C5_88  and  N6_94 
REMARK   25  A    between atoms: N6_94  and  CA6_95 
REMARK   26  A    between atoms: CA6_95  and  C6_97 
REMARK   27  A    between atoms: CA6_95  and  CB6_99 
REMARK       I    between atoms: C6_97  and  N7_112 
REMARK   28  A    between atoms: CB6_99  and  CG6_102 
REMARK   29  A    between atoms: CG6_102  and  CD4_105 
ROOT
HETATM    1  N   0Q4 A 125     -10.492  17.059  28.814  1.00 21.27    -0.067 N 
HETATM    2  H   0Q4 A 125     -10.713  16.225  29.376  1.00 15.00     0.275 HD
HETATM    3  H2  0Q4 A 125      -9.563  17.463  29.095  1.00 15.00     0.275 HD
HETATM    4  HN3 0Q4 A 125     -11.236  17.760  28.955  1.00 15.00     0.275 HD
ENDROOT
BRANCH   1   5
HETATM    5  CA  0Q4 A 125     -10.363  16.721  27.363  1.00 21.76     0.274 C 
BRANCH   5   6
HETATM    6  C   0Q4 A 125      -9.221  15.668  27.187  1.00 21.89     0.249 C 
HETATM    7  O   0Q4 A 125      -9.483  14.517  26.793  1.00 22.48    -0.271 OA
HETATM    8  N1  0Q4 A 125      -7.967  16.092  27.413  1.00 19.10    -0.346 N 
HETATM    9  H1  0Q4 A 125      -7.785  16.999  27.738  1.00 15.00     0.163 HD
BRANCH   8  10
HETATM   10  CA1 0Q4 A 125      -6.789  15.241  27.236  1.00 18.90     0.180 C 
BRANCH  10  11
HETATM   11  C1  0Q4 A 125      -6.068  14.957  28.579  1.00 17.14     0.241 C 
HETATM   12  O1  0Q4 A 125      -5.872  13.823  28.996  1.00 18.87    -0.271 OA
HETATM   13  N2  0Q4 A 125      -5.776  16.015  29.315  1.00 17.78    -0.350 N 
HETATM   14  HN2 0Q4 A 125      -6.022  16.913  29.001  1.00 15.00     0.163 HD
BRANCH  13  15
HETATM   15  CA2 0Q4 A 125      -5.042  15.881  30.560  1.00 17.96     0.123 C 
BRANCH  15  16
HETATM   16  C2  0Q4 A 125      -5.828  16.126  31.841  1.00 17.56     0.081 C 
HETATM   17  N3  0Q4 A 125      -6.959  15.454  31.957  1.00 16.64    -0.387 N 
HETATM   18  H3  0Q4 A 125      -7.219  14.862  31.226  1.00 15.00     0.159 HD
BRANCH  17  19
HETATM   19  CA3 0Q4 A 125      -7.830  15.528  33.137  1.00 16.89     0.177 C 
BRANCH  19  20
HETATM   20  C3  0Q4 A 125      -9.281  15.521  32.580  1.00 15.06     0.241 C 
HETATM   21  O2  0Q4 A 125      -9.484  15.686  31.374  1.00 12.51    -0.271 OA
HETATM   22  N4  0Q4 A 125     -10.252  15.218  33.441  1.00 14.54    -0.346 N 
HETATM   23  H4  0Q4 A 125     -10.044  15.101  34.393  1.00 15.00     0.163 HD
BRANCH  22  24
HETATM   24  CA4 0Q4 A 125     -11.659  15.095  33.048  1.00 15.81     0.177 C 
BRANCH  24  25
HETATM   25  C4  0Q4 A 125     -12.520  16.344  33.263  1.00 17.52     0.241 C 
HETATM   26  O3  0Q4 A 125     -12.193  17.447  32.821  1.00 17.50    -0.271 OA
HETATM   27  N5  0Q4 A 125     -13.546  16.192  34.084  1.00 19.61    -0.346 N 
HETATM   28  H5  0Q4 A 125     -13.717  15.324  34.512  1.00 15.00     0.163 HD
BRANCH  27  29
HETATM   29  CA5 0Q4 A 125     -14.442  17.293  34.366  1.00 21.82     0.172 C 
HETATM   30  CB5 0Q4 A 125     -15.612  17.218  33.403  1.00 22.24     0.042 C 
BRANCH  29  31
HETATM   31  C5  0Q4 A 125     -14.978  17.402  35.815  1.00 24.09     0.240 C 
HETATM   32  O4  0Q4 A 125     -16.036  17.978  36.077  1.00 20.88    -0.271 OA
HETATM   33  N6  0Q4 A 125     -14.182  16.879  36.742  1.00 27.66    -0.346 N 
HETATM   34  H6  0Q4 A 125     -13.345  16.478  36.451  1.00 15.00     0.163 HD
BRANCH  33  35
HETATM   35  CA6 0Q4 A 125     -14.446  16.943  38.173  1.00 31.09     0.176 C 
BRANCH  35  36
HETATM   36  C6  0Q4 A 125     -15.765  16.184  38.397  1.00 33.78     0.238 C 
HETATM   37  O5  0Q4 A 125     -16.566  16.548  39.308  1.00 34.60    -0.271 OA
HETATM   38  N7  0Q4 A 125     -15.967  15.189  37.658  1.00 36.53    -0.368 N 
HETATM   39  H72 0Q4 A 125     -15.322  14.895  36.925  1.00  0.00     0.159 HD
HETATM   40  H71 0Q4 A 125     -16.842  14.686  37.807  1.00  0.00     0.159 HD
ENDBRANCH  35  36
BRANCH  35  41
HETATM   41  CB6 0Q4 A 125     -14.612  18.428  38.585  1.00 32.55     0.035 C 
BRANCH  41  42
HETATM   42  CG6 0Q4 A 125     -13.446  19.093  39.398  1.00 32.73     0.002 C 
BRANCH  42  43
HETATM   43  CD4 0Q4 A 125     -13.744  19.287  40.937  1.00 31.59    -0.004 C 
HETATM   44  CE  0Q4 A 125     -13.404  20.695  41.382  1.00 23.29     0.005 C 
ENDBRANCH  42  43
ENDBRANCH  41  42
ENDBRANCH  35  41
ENDBRANCH  33  35
ENDBRANCH  29  31
ENDBRANCH  27  29
ENDBRANCH  24  25
BRANCH  24  45
HETATM   45  CB4 0Q4 A 125     -12.295  13.888  33.794  1.00 17.07     0.045 C 
BRANCH  45  46
HETATM   46  CG5 0Q4 A 125     -11.819  13.614  35.208  1.00 18.50     0.116 C 
BRANCH  46  47
HETATM   47  CD3 0Q4 A 125     -12.919  13.805  36.263  1.00 26.68     0.172 C 
HETATM   48  OE1 0Q4 A 125     -14.106  13.837  35.888  1.00 29.71    -0.648 OA
HETATM   49  OE2 0Q4 A 125     -12.614  13.922  37.479  1.00 31.35    -0.648 OA
ENDBRANCH  46  47
ENDBRANCH  45  46
ENDBRANCH  24  45
ENDBRANCH  22  24
ENDBRANCH  19  20
BRANCH  19  50
HETATM   50  CB3 0Q4 A 125      -7.407  16.794  33.940  1.00 18.22     0.073 C 
BRANCH  50  51
HETATM   51  CG4 0Q4 A 125      -6.697  16.528  35.209  1.00 21.59    -0.056 A 
HETATM   52  CD1 0Q4 A 125      -7.363  16.609  36.424  1.00 22.99     0.007 A 
HETATM   53  CE1 0Q4 A 125      -6.703  16.312  37.639  1.00 24.00     0.001 A 
HETATM   54  CZ1 0Q4 A 125      -5.355  15.937  37.635  1.00 25.64     0.000 A 
HETATM   55  CE2 0Q4 A 125      -4.672  15.861  36.422  1.00 27.27     0.001 A 
HETATM   56  CD2 0Q4 A 125      -5.355  16.161  35.204  1.00 24.65     0.007 A 
ENDBRANCH  50  51
ENDBRANCH  19  50
ENDBRANCH  17  19
ENDBRANCH  15  16
BRANCH  15  57
HETATM   57  CB2 0Q4 A 125      -3.750  16.731  30.496  1.00 19.32     0.034 C 
BRANCH  57  58
HETATM   58  CG3 0Q4 A 125      -2.425  15.920  30.436  1.00 21.12    -0.020 C 
HETATM   59  CD1 0Q4 A 125      -2.448  14.811  29.385  1.00 21.22     0.009 C 
HETATM   60  CD2 0Q4 A 125      -1.257  16.853  30.174  1.00 17.47     0.009 C 
ENDBRANCH  57  58
ENDBRANCH  15  57
ENDBRANCH  13  15
ENDBRANCH  10  11
BRANCH  10  61
HETATM   61  CB1 0Q4 A 125      -5.829  15.851  26.090  1.00 19.28     0.009 C 
HETATM   62  CG1 0Q4 A 125      -6.180  15.304  24.704  1.00 20.08     0.012 C 
HETATM   63  CG2 0Q4 A 125      -5.956  17.387  26.033  1.00 19.54     0.012 C 
ENDBRANCH  10  61
ENDBRANCH   8  10
ENDBRANCH   5   6
BRANCH   5  64
HETATM   64  CB  0Q4 A 125     -10.115  18.010  26.569  1.00 21.80     0.044 C 
BRANCH  64  65
HETATM   65  CG  0Q4 A 125     -11.334  18.604  25.784  1.00 26.69     0.023 C 
BRANCH  65  66
HETATM   66  CD  0Q4 A 125     -11.996  19.884  26.406  1.00 29.76     0.138 C 
BRANCH  66  67
HETATM   67  NE  0Q4 A 125     -12.710  19.657  27.669  1.00 32.26    -0.227 N 
HETATM   68  CZ  0Q4 A 125     -12.305  20.101  28.862  1.00 34.72     0.665 C 
HETATM   69  NH1 0Q4 A 125     -11.193  20.812  28.947  1.00 35.07    -0.235 N 
HETATM   70  NH2 0Q4 A 125     -12.940  19.731  29.984  1.00 35.86    -0.235 N 
HETATM   71 HH11 0Q4 A 125     -10.665  21.019  28.125  1.00 15.00     0.174 HD
HETATM   72 HH12 0Q4 A 125     -10.881  21.149  29.837  1.00 15.00     0.174 HD
HETATM   73 HH21 0Q4 A 125     -13.728  19.119  29.943  1.00 15.00     0.174 HD
HETATM   74 HH22 0Q4 A 125     -12.617  20.075  30.868  1.00 15.00     0.174 HD
HETATM   75  HE  0Q4 A 125     -13.547  19.142  27.647  1.00 15.00     0.177 HD
ENDBRANCH  66  67
ENDBRANCH  65  66
ENDBRANCH  64  65
ENDBRANCH   5  64
ENDBRANCH   1   5
TORSDOF 29
ENDMDL
MODEL 16
REMARK VINA RESULT:      -7.0      3.372     11.433
REMARK  29 active torsions:
REMARK  status: ('A' for Active; 'I' for Inactive)
REMARK    1  A    between atoms: N_1  and  CA_2 
REMARK    2  A    between atoms: CA_2  and  C_4 
REMARK    3  A    between atoms: CA_2  and  CB_6 
REMARK       I    between atoms: C_4  and  N1_19 
REMARK    4  A    between atoms: CB_6  and  CG_9 
REMARK    5  A    between atoms: CG_9  and  CD_12 
REMARK    6  A    between atoms: CD_12  and  NE_15 
REMARK       I    between atoms: NE_15  and  CZ_16 
REMARK       I    between atoms: CZ_16  and  NH1_17 
REMARK    7  A    between atoms: N1_19  and  CA1_20 
REMARK    8  A    between atoms: CA1_20  and  C1_22 
REMARK    9  A    between atoms: CA1_20  and  CB1_24 
REMARK       I    between atoms: C1_22  and  N2_34 
REMARK   10  A    between atoms: N2_34  and  CA2_35 
REMARK   11  A    between atoms: CA2_35  and  C2_37 
REMARK   12  A    between atoms: CA2_35  and  CB2_39 
REMARK   13  A    between atoms: CB2_39  and  CG3_42 
REMARK   14  A    between atoms: N3_52  and  CA3_53 
REMARK   15  A    between atoms: CA3_53  and  C3_55 
REMARK   16  A    between atoms: CA3_53  and  CB3_57 
REMARK       I    between atoms: C3_55  and  N4_71 
REMARK   17  A    between atoms: CB3_57  and  CG4_60 
REMARK   18  A    between atoms: N4_71  and  CA4_72 
REMARK   19  A    between atoms: CA4_72  and  C4_74 
REMARK   20  A    between atoms: CA4_72  and  CB4_76 
REMARK       I    between atoms: C4_74  and  N5_85 
REMARK   21  A    between atoms: CB4_76  and  CG5_79 
REMARK   22  A    between atoms: CG5_79  and  CD3_82 
REMARK   23  A    between atoms: N5_85  and  CA5_86 
REMARK   24  A    between atoms: CA5_86  and  C5_88 
REMARK       I    between atoms: C5_88  and  N6_94 
REMARK   25  A    between atoms: N6_94  and  CA6_95 
REMARK   26  A    between atoms: CA6_95  and  C6_97 
REMARK   27  A    between atoms: CA6_95  and  CB6_99 
REMARK       I    between atoms: C6_97  and  N7_112 
REMARK   28  A    between atoms: CB6_99  and  CG6_102 
REMARK   29  A    between atoms: CG6_102  and  CD4_105 
ROOT
HETATM    1  N   0Q4 A 125     -11.472  19.754  26.280  1.00 21.27    -0.067 N 
HETATM    2  H   0Q4 A 125     -11.290  18.826  25.875  1.00 15.00     0.275 HD
HETATM    3  H2  0Q4 A 125     -12.432  20.094  26.021  1.00 15.00     0.275 HD
HETATM    4  HN3 0Q4 A 125     -10.761  20.415  25.928  1.00 15.00     0.275 HD
ENDROOT
BRANCH   1   5
HETATM    5  CA  0Q4 A 125     -11.448  19.712  27.774  1.00 21.76     0.274 C 
BRANCH   5   6
HETATM    6  C   0Q4 A 125     -12.143  18.398  28.255  1.00 21.89     0.249 C 
HETATM    7  O   0Q4 A 125     -13.385  18.330  28.317  1.00 22.48    -0.271 OA
HETATM    8  N1  0Q4 A 125     -11.344  17.352  28.521  1.00 19.10    -0.346 N 
HETATM    9  H1  0Q4 A 125     -10.367  17.432  28.479  1.00 15.00     0.163 HD
BRANCH   8  10
HETATM   10  CA1 0Q4 A 125     -11.849  16.039  28.926  1.00 18.90     0.180 C 
BRANCH  10  11
HETATM   11  C1  0Q4 A 125     -11.297  15.604  30.309  1.00 17.14     0.241 C 
HETATM   12  O1  0Q4 A 125     -10.281  14.932  30.431  1.00 18.87    -0.271 OA
HETATM   13  N2  0Q4 A 125     -12.050  15.899  31.353  1.00 17.78    -0.350 N 
HETATM   14  HN2 0Q4 A 125     -12.908  16.363  31.223  1.00 15.00     0.163 HD
BRANCH  13  15
HETATM   15  CA2 0Q4 A 125     -11.608  15.603  32.703  1.00 17.96     0.123 C 
BRANCH  15  16
HETATM   16  C2  0Q4 A 125     -10.112  15.385  32.894  1.00 17.56     0.081 C 
HETATM   17  N3  0Q4 A 125      -9.377  16.480  32.960  1.00 16.64    -0.387 N 
HETATM   18  H3  0Q4 A 125      -9.828  17.342  32.874  1.00 15.00     0.159 HD
BRANCH  17  19
HETATM   19  CA3 0Q4 A 125      -7.927  16.472  33.183  1.00 16.89     0.177 C 
BRANCH  19  20
HETATM   20  C3  0Q4 A 125      -7.291  16.503  31.765  1.00 15.06     0.241 C 
HETATM   21  O2  0Q4 A 125      -6.829  17.555  31.315  1.00 12.51    -0.271 OA
HETATM   22  N4  0Q4 A 125      -7.174  15.334  31.134  1.00 14.54    -0.346 N 
HETATM   23  H4  0Q4 A 125      -7.563  14.524  31.529  1.00 15.00     0.163 HD
BRANCH  22  24
HETATM   24  CA4 0Q4 A 125      -6.526  15.193  29.827  1.00 15.81     0.177 C 
BRANCH  24  25
HETATM   25  C4  0Q4 A 125      -5.001  15.055  29.853  1.00 17.52     0.241 C 
HETATM   26  O3  0Q4 A 125      -4.413  14.180  29.213  1.00 17.50    -0.271 OA
HETATM   27  N5  0Q4 A 125      -4.375  15.827  30.725  1.00 19.61    -0.346 N 
HETATM   28  H5  0Q4 A 125      -4.883  16.437  31.305  1.00 15.00     0.163 HD
BRANCH  27  29
HETATM   29  CA5 0Q4 A 125      -2.933  15.797  30.845  1.00 21.82     0.172 C 
HETATM   30  CB5 0Q4 A 125      -2.345  16.705  29.781  1.00 22.24     0.042 C 
BRANCH  29  31
HETATM   31  C5  0Q4 A 125      -2.340  16.175  32.225  1.00 24.09     0.240 C 
HETATM   32  O4  0Q4 A 125      -3.050  16.330  33.220  1.00 20.88    -0.271 OA
HETATM   33  N6  0Q4 A 125      -1.025  16.369  32.228  1.00 27.66    -0.346 N 
HETATM   34  H6  0Q4 A 125      -0.546  16.262  31.389  1.00 15.00     0.163 HD
BRANCH  33  35
HETATM   35  CA6 0Q4 A 125      -0.269  16.810  33.393  1.00 31.09     0.176 C 
BRANCH  35  36
HETATM   36  C6  0Q4 A 125       0.489  18.075  32.955  1.00 33.78     0.238 C 
HETATM   37  O5  0Q4 A 125       1.748  18.054  32.828  1.00 34.60    -0.271 OA
HETATM   38  N7  0Q4 A 125      -0.206  19.105  32.772  1.00 36.53    -0.368 N 
HETATM   39  H72 0Q4 A 125      -1.221  19.122  32.873  1.00  0.00     0.159 HD
HETATM   40  H71 0Q4 A 125       0.297  19.943  32.481  1.00  0.00     0.159 HD
ENDBRANCH  35  36
BRANCH  35  41
HETATM   41  CB6 0Q4 A 125       0.737  15.698  33.786  1.00 32.55     0.035 C 
BRANCH  41  42
HETATM   42  CG6 0Q4 A 125       1.088  15.539  35.307  1.00 32.73     0.002 C 
BRANCH  42  43
HETATM   43  CD4 0Q4 A 125       0.409  16.605  36.254  1.00 31.59    -0.004 C 
HETATM   44  CE  0Q4 A 125       0.179  16.033  37.638  1.00 23.29     0.005 C 
ENDBRANCH  42  43
ENDBRANCH  41  42
ENDBRANCH  35  41
ENDBRANCH  33  35
ENDBRANCH  29  31
ENDBRANCH  27  29
ENDBRANCH  24  25
BRANCH  24  45
HETATM   45  CB4 0Q4 A 125      -6.926  16.395  28.926  1.00 17.07     0.045 C 
BRANCH  45  46
HETATM   46  CG5 0Q4 A 125      -8.112  16.208  28.000  1.00 18.50     0.116 C 
BRANCH  46  47
HETATM   47  CD3 0Q4 A 125      -8.143  17.222  26.846  1.00 26.68     0.172 C 
HETATM   48  OE1 0Q4 A 125      -7.080  17.775  26.508  1.00 29.71    -0.648 OA
HETATM   49  OE2 0Q4 A 125      -9.227  17.477  26.259  1.00 31.35    -0.648 OA
ENDBRANCH  46  47
ENDBRANCH  45  46
ENDBRANCH  24  45
ENDBRANCH  22  24
ENDBRANCH  19  20
BRANCH  19  50
HETATM   50  CB3 0Q4 A 125      -7.604  15.222  34.055  1.00 18.22     0.073 C 
BRANCH  50  51
HETATM   51  CG4 0Q4 A 125      -6.868  15.499  35.307  1.00 21.59    -0.056 A 
HETATM   52  CD1 0Q4 A 125      -5.500  15.282  35.387  1.00 22.99     0.007 A 
HETATM   53  CE1 0Q4 A 125      -4.781  15.587  36.566  1.00 24.00     0.001 A 
HETATM   54  CZ1 0Q4 A 125      -5.445  16.109  37.681  1.00 25.64     0.000 A 
HETATM   55  CE2 0Q4 A 125      -6.821  16.321  37.617  1.00 27.27     0.001 A 
HETATM   56  CD2 0Q4 A 125      -7.531  16.011  36.417  1.00 24.65     0.007 A 
ENDBRANCH  50  51
ENDBRANCH  19  50
ENDBRANCH  17  19
ENDBRANCH  15  16
BRANCH  15  57
HETATM   57  CB2 0Q4 A 125     -12.446  14.437  33.280  1.00 19.32     0.034 C 
BRANCH  57  58
HETATM   58  CG3 0Q4 A 125     -13.409  14.824  34.438  1.00 21.12    -0.020 C 
HETATM   59  CD1 0Q4 A 125     -14.802  14.212  34.288  1.00 21.22     0.009 C 
HETATM   60  CD2 0Q4 A 125     -12.810  14.414  35.770  1.00 17.47     0.009 C 
ENDBRANCH  57  58
ENDBRANCH  15  57
ENDBRANCH  13  15
ENDBRANCH  10  11
BRANCH  10  61
HETATM   61  CB1 0Q4 A 125     -11.602  14.961  27.750  1.00 19.28     0.009 C 
HETATM   62  CG1 0Q4 A 125     -12.127  13.574  28.130  1.00 20.08     0.012 C 
HETATM   63  CG2 0Q4 A 125     -12.318  15.394  26.454  1.00 19.54     0.012 C 
ENDBRANCH  10  61
ENDBRANCH   8  10
ENDBRANCH   5   6
BRANCH   5  64
HETATM   64  CB  0Q4 A 125     -12.119  20.978  28.322  1.00 21.80     0.044 C 
BRANCH  64  65
HETATM   65  CG  0Q4 A 125     -12.297  21.070  29.876  1.00 26.69     0.023 C 
BRANCH  65  66
HETATM   66  CD  0Q4 A 125     -13.770  21.231  30.392  1.00 29.76     0.138 C 
BRANCH  66  67
HETATM   67  NE  0Q4 A 125     -14.708  21.798  29.415  1.00 32.26    -0.227 N 
HETATM   68  CZ  0Q4 A 125     -15.698  21.120  28.828  1.00 34.72     0.665 C 
HETATM   69  NH1 0Q4 A 125     -15.886  19.848  29.137  1.00 35.07    -0.235 N 
HETATM   70  NH2 0Q4 A 125     -16.420  21.675  27.843  1.00 35.86    -0.235 N 
HETATM   71 HH11 0Q4 A 125     -15.296  19.402  29.808  1.00 15.00     0.174 HD
HETATM   72 HH12 0Q4 A 125     -16.625  19.331  28.703  1.00 15.00     0.174 HD
HETATM   73 HH21 0Q4 A 125     -16.230  22.605  27.536  1.00 15.00     0.174 HD
HETATM   74 HH22 0Q4 A 125     -17.157  21.146  27.416  1.00 15.00     0.174 HD
HETATM   75  HE  0Q4 A 125     -14.609  22.744  29.167  1.00 15.00     0.177 HD
ENDBRANCH  66  67
ENDBRANCH  65  66
ENDBRANCH  64  65
ENDBRANCH   5  64
ENDBRANCH   1   5
TORSDOF 29
ENDMDL
MODEL 17
REMARK VINA RESULT:      -7.0      2.049      4.873
REMARK  29 active torsions:
REMARK  status: ('A' for Active; 'I' for Inactive)
REMARK    1  A    between atoms: N_1  and  CA_2 
REMARK    2  A    between atoms: CA_2  and  C_4 
REMARK    3  A    between atoms: CA_2  and  CB_6 
REMARK       I    between atoms: C_4  and  N1_19 
REMARK    4  A    between atoms: CB_6  and  CG_9 
REMARK    5  A    between atoms: CG_9  and  CD_12 
REMARK    6  A    between atoms: CD_12  and  NE_15 
REMARK       I    between atoms: NE_15  and  CZ_16 
REMARK       I    between atoms: CZ_16  and  NH1_17 
REMARK    7  A    between atoms: N1_19  and  CA1_20 
REMARK    8  A    between atoms: CA1_20  and  C1_22 
REMARK    9  A    between atoms: CA1_20  and  CB1_24 
REMARK       I    between atoms: C1_22  and  N2_34 
REMARK   10  A    between atoms: N2_34  and  CA2_35 
REMARK   11  A    between atoms: CA2_35  and  C2_37 
REMARK   12  A    between atoms: CA2_35  and  CB2_39 
REMARK   13  A    between atoms: CB2_39  and  CG3_42 
REMARK   14  A    between atoms: N3_52  and  CA3_53 
REMARK   15  A    between atoms: CA3_53  and  C3_55 
REMARK   16  A    between atoms: CA3_53  and  CB3_57 
REMARK       I    between atoms: C3_55  and  N4_71 
REMARK   17  A    between atoms: CB3_57  and  CG4_60 
REMARK   18  A    between atoms: N4_71  and  CA4_72 
REMARK   19  A    between atoms: CA4_72  and  C4_74 
REMARK   20  A    between atoms: CA4_72  and  CB4_76 
REMARK       I    between atoms: C4_74  and  N5_85 
REMARK   21  A    between atoms: CB4_76  and  CG5_79 
REMARK   22  A    between atoms: CG5_79  and  CD3_82 
REMARK   23  A    between atoms: N5_85  and  CA5_86 
REMARK   24  A    between atoms: CA5_86  and  C5_88 
REMARK       I    between atoms: C5_88  and  N6_94 
REMARK   25  A    between atoms: N6_94  and  CA6_95 
REMARK   26  A    between atoms: CA6_95  and  C6_97 
REMARK   27  A    between atoms: CA6_95  and  CB6_99 
REMARK       I    between atoms: C6_97  and  N7_112 
REMARK   28  A    between atoms: CB6_99  and  CG6_102 
REMARK   29  A    between atoms: CG6_102  and  CD4_105 
ROOT
HETATM    1  N   0Q4 A 125      -1.522  18.607  33.148  1.00 21.27    -0.067 N 
HETATM    2  H   0Q4 A 125      -0.727  19.143  33.525  1.00 15.00     0.275 HD
HETATM    3  H2  0Q4 A 125      -1.516  18.620  32.096  1.00 15.00     0.275 HD
HETATM    4  HN3 0Q4 A 125      -2.399  19.024  33.498  1.00 15.00     0.275 HD
ENDROOT
BRANCH   1   5
HETATM    5  CA  0Q4 A 125      -1.440  17.165  33.534  1.00 21.76     0.274 C 
BRANCH   5   6
HETATM    6  C   0Q4 A 125      -2.837  16.502  33.314  1.00 21.89     0.249 C 
HETATM    7  O   0Q4 A 125      -2.975  15.588  32.478  1.00 22.48    -0.271 OA
HETATM    8  N1  0Q4 A 125      -3.837  16.915  34.110  1.00 19.10    -0.346 N 
HETATM    9  H1  0Q4 A 125      -3.709  17.647  34.751  1.00 15.00     0.163 HD
BRANCH   8  10
HETATM   10  CA1 0Q4 A 125      -5.186  16.350  34.062  1.00 18.90     0.180 C 
BRANCH  10  11
HETATM   11  C1  0Q4 A 125      -6.066  17.033  32.983  1.00 17.14     0.241 C 
HETATM   12  O1  0Q4 A 125      -6.940  17.844  33.262  1.00 18.87    -0.271 OA
HETATM   13  N2  0Q4 A 125      -5.903  16.604  31.745  1.00 17.78    -0.350 N 
HETATM   14  HN2 0Q4 A 125      -5.257  15.887  31.556  1.00 15.00     0.163 HD
BRANCH  13  15
HETATM   15  CA2 0Q4 A 125      -6.621  17.213  30.641  1.00 17.96     0.123 C 
BRANCH  15  16
HETATM   16  C2  0Q4 A 125      -7.496  16.286  29.806  1.00 17.56     0.081 C 
HETATM   17  N3  0Q4 A 125      -8.680  16.764  29.471  1.00 16.64    -0.387 N 
HETATM   18  H3  0Q4 A 125      -8.919  17.659  29.781  1.00 15.00     0.159 HD
BRANCH  17  19
HETATM   19  CA3 0Q4 A 125      -9.643  16.036  28.636  1.00 16.89     0.177 C 
BRANCH  19  20
HETATM   20  C3  0Q4 A 125     -10.780  15.599  29.602  1.00 15.06     0.241 C 
HETATM   21  O2  0Q4 A 125     -11.755  14.979  29.171  1.00 12.51    -0.271 OA
HETATM   22  N4  0Q4 A 125     -10.584  15.828  30.901  1.00 14.54    -0.346 N 
HETATM   23  H4  0Q4 A 125      -9.795  16.332  31.196  1.00 15.00     0.163 HD
BRANCH  22  24
HETATM   24  CA4 0Q4 A 125     -11.529  15.403  31.938  1.00 15.81     0.177 C 
BRANCH  24  25
HETATM   25  C4  0Q4 A 125     -12.580  16.441  32.345  1.00 17.52     0.241 C 
HETATM   26  O3  0Q4 A 125     -12.294  17.425  33.030  1.00 17.50    -0.271 OA
HETATM   27  N5  0Q4 A 125     -13.830  16.129  32.051  1.00 19.61    -0.346 N 
HETATM   28  H5  0Q4 A 125     -14.040  15.280  31.602  1.00 15.00     0.163 HD
BRANCH  27  29
HETATM   29  CA5 0Q4 A 125     -14.917  17.028  32.376  1.00 21.82     0.172 C 
HETATM   30  CB5 0Q4 A 125     -15.872  17.072  31.198  1.00 22.24     0.042 C 
BRANCH  29  31
HETATM   31  C5  0Q4 A 125     -15.713  16.720  33.669  1.00 24.09     0.240 C 
HETATM   32  O4  0Q4 A 125     -16.845  16.232  33.637  1.00 20.88    -0.271 OA
HETATM   33  N6  0Q4 A 125     -15.103  17.077  34.794  1.00 27.66    -0.346 N 
HETATM   34  H6  0Q4 A 125     -14.226  17.492  34.726  1.00 15.00     0.163 HD
BRANCH  33  35
HETATM   35  CA6 0Q4 A 125     -15.699  16.958  36.118  1.00 31.09     0.176 C 
BRANCH  35  36
HETATM   36  C6  0Q4 A 125     -16.424  18.289  36.380  1.00 33.78     0.238 C 
HETATM   37  O5  0Q4 A 125     -15.858  19.389  36.110  1.00 34.60    -0.271 OA
HETATM   38  N7  0Q4 A 125     -17.566  18.209  36.896  1.00 36.53    -0.368 N 
HETATM   39  H72 0Q4 A 125     -18.022  17.323  37.112  1.00  0.00     0.159 HD
HETATM   40  H71 0Q4 A 125     -18.046  19.092  37.069  1.00  0.00     0.159 HD
ENDBRANCH  35  36
BRANCH  35  41
HETATM   41  CB6 0Q4 A 125     -14.568  16.757  37.159  1.00 32.55     0.035 C 
BRANCH  41  42
HETATM   42  CG6 0Q4 A 125     -14.846  17.216  38.634  1.00 32.73     0.002 C 
BRANCH  42  43
HETATM   43  CD4 0Q4 A 125     -14.004  18.466  39.104  1.00 31.59    -0.004 C 
HETATM   44  CE  0Q4 A 125     -14.359  18.857  40.524  1.00 23.29     0.005 C 
ENDBRANCH  42  43
ENDBRANCH  41  42
ENDBRANCH  35  41
ENDBRANCH  33  35
ENDBRANCH  29  31
ENDBRANCH  27  29
ENDBRANCH  24  25
BRANCH  24  45
HETATM   45  CB4 0Q4 A 125     -10.737  14.943  33.193  1.00 17.07     0.045 C 
BRANCH  45  46
HETATM   46  CG5 0Q4 A 125     -11.314  13.794  33.998  1.00 18.50     0.116 C 
BRANCH  46  47
HETATM   47  CD3 0Q4 A 125     -12.397  14.237  34.992  1.00 26.68     0.172 C 
HETATM   48  OE1 0Q4 A 125     -13.587  14.222  34.626  1.00 29.71    -0.648 OA
HETATM   49  OE2 0Q4 A 125     -12.076  14.604  36.154  1.00 31.35    -0.648 OA
ENDBRANCH  46  47
ENDBRANCH  45  46
ENDBRANCH  24  45
ENDBRANCH  22  24
ENDBRANCH  19  20
BRANCH  19  50
HETATM   50  CB3 0Q4 A 125      -8.861  14.889  27.929  1.00 18.22     0.073 C 
BRANCH  50  51
HETATM   51  CG4 0Q4 A 125      -8.061  15.299  26.756  1.00 21.59    -0.056 A 
HETATM   52  CD1 0Q4 A 125      -8.527  16.277  25.889  1.00 22.99     0.007 A 
HETATM   53  CE1 0Q4 A 125      -7.748  16.708  24.790  1.00 24.00     0.001 A 
HETATM   54  CZ1 0Q4 A 125      -6.490  16.145  24.554  1.00 25.64     0.000 A 
HETATM   55  CE2 0Q4 A 125      -6.015  15.155  25.413  1.00 27.27     0.001 A 
HETATM   56  CD2 0Q4 A 125      -6.812  14.734  26.520  1.00 24.65     0.007 A 
ENDBRANCH  50  51
ENDBRANCH  19  50
ENDBRANCH  17  19
ENDBRANCH  15  16
BRANCH  15  57
HETATM   57  CB2 0Q4 A 125      -5.638  18.030  29.768  1.00 19.32     0.034 C 
BRANCH  57  58
HETATM   58  CG3 0Q4 A 125      -5.394  17.466  28.340  1.00 21.12    -0.020 C 
HETATM   59  CD1 0Q4 A 125      -5.468  18.537  27.252  1.00 21.22     0.009 C 
HETATM   60  CD2 0Q4 A 125      -4.048  16.767  28.281  1.00 17.47     0.009 C 
ENDBRANCH  57  58
ENDBRANCH  15  57
ENDBRANCH  13  15
ENDBRANCH  10  11
BRANCH  10  61
HETATM   61  CB1 0Q4 A 125      -5.839  16.346  35.539  1.00 19.28     0.009 C 
HETATM   62  CG1 0Q4 A 125      -7.091  15.468  35.605  1.00 20.08     0.012 C 
HETATM   63  CG2 0Q4 A 125      -4.835  15.808  36.578  1.00 19.54     0.012 C 
ENDBRANCH  10  61
ENDBRANCH   8  10
ENDBRANCH   5   6
BRANCH   5  64
HETATM   64  CB  0Q4 A 125      -0.951  17.062  34.984  1.00 21.80     0.044 C 
BRANCH  64  65
HETATM   65  CG  0Q4 A 125       0.470  16.442  35.211  1.00 26.69     0.023 C 
BRANCH  65  66
HETATM   66  CD  0Q4 A 125       1.671  17.453  35.209  1.00 29.76     0.138 C 
BRANCH  66  67
HETATM   67  NE  0Q4 A 125       2.775  17.099  34.308  1.00 32.26    -0.227 N 
HETATM   68  CZ  0Q4 A 125       2.850  17.454  33.023  1.00 34.72     0.665 C 
HETATM   69  NH1 0Q4 A 125       1.888  18.191  32.495  1.00 35.07    -0.235 N 
HETATM   70  NH2 0Q4 A 125       3.822  16.971  32.233  1.00 35.86    -0.235 N 
HETATM   71 HH11 0Q4 A 125       1.114  18.483  33.055  1.00 15.00     0.174 HD
HETATM   72 HH12 0Q4 A 125       1.935  18.463  31.532  1.00 15.00     0.174 HD
HETATM   73 HH21 0Q4 A 125       4.504  16.340  32.596  1.00 15.00     0.174 HD
HETATM   74 HH22 0Q4 A 125       3.857  17.250  31.271  1.00 15.00     0.174 HD
HETATM   75  HE  0Q4 A 125       3.516  16.560  34.664  1.00 15.00     0.177 HD
ENDBRANCH  66  67
ENDBRANCH  65  66
ENDBRANCH  64  65
ENDBRANCH   5  64
ENDBRANCH   1   5
TORSDOF 29
ENDMDL
MODEL 18
REMARK VINA RESULT:      -6.9      3.405     12.043
REMARK  29 active torsions:
REMARK  status: ('A' for Active; 'I' for Inactive)
REMARK    1  A    between atoms: N_1  and  CA_2 
REMARK    2  A    between atoms: CA_2  and  C_4 
REMARK    3  A    between atoms: CA_2  and  CB_6 
REMARK       I    between atoms: C_4  and  N1_19 
REMARK    4  A    between atoms: CB_6  and  CG_9 
REMARK    5  A    between atoms: CG_9  and  CD_12 
REMARK    6  A    between atoms: CD_12  and  NE_15 
REMARK       I    between atoms: NE_15  and  CZ_16 
REMARK       I    between atoms: CZ_16  and  NH1_17 
REMARK    7  A    between atoms: N1_19  and  CA1_20 
REMARK    8  A    between atoms: CA1_20  and  C1_22 
REMARK    9  A    between atoms: CA1_20  and  CB1_24 
REMARK       I    between atoms: C1_22  and  N2_34 
REMARK   10  A    between atoms: N2_34  and  CA2_35 
REMARK   11  A    between atoms: CA2_35  and  C2_37 
REMARK   12  A    between atoms: CA2_35  and  CB2_39 
REMARK   13  A    between atoms: CB2_39  and  CG3_42 
REMARK   14  A    between atoms: N3_52  and  CA3_53 
REMARK   15  A    between atoms: CA3_53  and  C3_55 
REMARK   16  A    between atoms: CA3_53  and  CB3_57 
REMARK       I    between atoms: C3_55  and  N4_71 
REMARK   17  A    between atoms: CB3_57  and  CG4_60 
REMARK   18  A    between atoms: N4_71  and  CA4_72 
REMARK   19  A    between atoms: CA4_72  and  C4_74 
REMARK   20  A    between atoms: CA4_72  and  CB4_76 
REMARK       I    between atoms: C4_74  and  N5_85 
REMARK   21  A    between atoms: CB4_76  and  CG5_79 
REMARK   22  A    between atoms: CG5_79  and  CD3_82 
REMARK   23  A    between atoms: N5_85  and  CA5_86 
REMARK   24  A    between atoms: CA5_86  and  C5_88 
REMARK       I    between atoms: C5_88  and  N6_94 
REMARK   25  A    between atoms: N6_94  and  CA6_95 
REMARK   26  A    between atoms: CA6_95  and  C6_97 
REMARK   27  A    between atoms: CA6_95  and  CB6_99 
REMARK       I    between atoms: C6_97  and  N7_112 
REMARK   28  A    between atoms: CB6_99  and  CG6_102 
REMARK   29  A    between atoms: CG6_102  and  CD4_105 
ROOT
HETATM    1  N   0Q4 A 125     -16.229  15.780  38.094  1.00 21.27    -0.067 N 
HETATM    2  H   0Q4 A 125     -15.934  15.484  39.035  1.00 15.00     0.275 HD
HETATM    3  H2  0Q4 A 125     -17.196  16.192  38.118  1.00 15.00     0.275 HD
HETATM    4  HN3 0Q4 A 125     -16.214  14.958  37.469  1.00 15.00     0.275 HD
ENDROOT
BRANCH   1   5
HETATM    5  CA  0Q4 A 125     -15.343  16.858  37.558  1.00 21.76     0.274 C 
BRANCH   5   6
HETATM    6  C   0Q4 A 125     -14.177  16.203  36.751  1.00 21.89     0.249 C 
HETATM    7  O   0Q4 A 125     -13.266  15.596  37.344  1.00 22.48    -0.271 OA
HETATM    8  N1  0Q4 A 125     -14.255  16.270  35.412  1.00 19.10    -0.346 N 
HETATM    9  H1  0Q4 A 125     -14.974  16.766  34.966  1.00 15.00     0.163 HD
BRANCH   8  10
HETATM   10  CA1 0Q4 A 125     -13.270  15.656  34.519  1.00 18.90     0.180 C 
BRANCH  10  11
HETATM   11  C1  0Q4 A 125     -13.093  16.461  33.206  1.00 17.14     0.241 C 
HETATM   12  O1  0Q4 A 125     -11.994  16.689  32.716  1.00 18.87    -0.271 OA
HETATM   13  N2  0Q4 A 125     -14.190  16.993  32.698  1.00 17.78    -0.350 N 
HETATM   14  HN2 0Q4 A 125     -15.051  16.870  33.158  1.00 15.00     0.163 HD
BRANCH  13  15
HETATM   15  CA2 0Q4 A 125     -14.160  17.711  31.438  1.00 17.96     0.123 C 
BRANCH  15  16
HETATM   16  C2  0Q4 A 125     -13.520  16.988  30.260  1.00 17.56     0.081 C 
HETATM   17  N3  0Q4 A 125     -12.395  17.513  29.809  1.00 16.64    -0.387 N 
HETATM   18  H3  0Q4 A 125     -12.058  18.320  30.243  1.00 15.00     0.159 HD
BRANCH  17  19
HETATM   19  CA3 0Q4 A 125     -11.613  16.934  28.710  1.00 16.89     0.177 C 
BRANCH  19  20
HETATM   20  C3  0Q4 A 125     -10.473  16.130  29.394  1.00 15.06     0.241 C 
HETATM   21  O2  0Q4 A 125     -10.692  15.001  29.842  1.00 12.51    -0.271 OA
HETATM   22  N4  0Q4 A 125      -9.254  16.671  29.362  1.00 14.54    -0.346 N 
HETATM   23  H4  0Q4 A 125      -9.130  17.575  29.000  1.00 15.00     0.163 HD
BRANCH  22  24
HETATM   24  CA4 0Q4 A 125      -8.067  15.997  29.895  1.00 15.81     0.177 C 
BRANCH  24  25
HETATM   25  C4  0Q4 A 125      -7.241  16.803  30.902  1.00 17.52     0.241 C 
HETATM   26  O3  0Q4 A 125      -6.483  17.709  30.549  1.00 17.50    -0.271 OA
HETATM   27  N5  0Q4 A 125      -7.275  16.360  32.148  1.00 19.61    -0.346 N 
HETATM   28  H5  0Q4 A 125      -7.802  15.563  32.379  1.00 15.00     0.163 HD
BRANCH  27  29
HETATM   29  CA5 0Q4 A 125      -6.543  17.036  33.197  1.00 21.82     0.172 C 
HETATM   30  CB5 0Q4 A 125      -7.387  17.020  34.458  1.00 22.24     0.042 C 
BRANCH  29  31
HETATM   31  C5  0Q4 A 125      -5.128  16.495  33.522  1.00 24.09     0.240 C 
HETATM   32  O4  0Q4 A 125      -4.925  15.723  34.462  1.00 20.88    -0.271 OA
HETATM   33  N6  0Q4 A 125      -4.160  16.972  32.747  1.00 27.66    -0.346 N 
HETATM   34  H6  0Q4 A 125      -4.404  17.608  32.052  1.00 15.00     0.163 HD
BRANCH  33  35
HETATM   35  CA6 0Q4 A 125      -2.747  16.665  32.925  1.00 31.09     0.176 C 
BRANCH  35  36
HETATM   36  C6  0Q4 A 125      -2.170  17.800  33.786  1.00 33.78     0.238 C 
HETATM   37  O5  0Q4 A 125      -2.381  17.828  35.034  1.00 34.60    -0.271 OA
HETATM   38  N7  0Q4 A 125      -1.524  18.689  33.177  1.00 36.53    -0.368 N 
HETATM   39  H72 0Q4 A 125      -1.353  18.667  32.172  1.00  0.00     0.159 HD
HETATM   40  H71 0Q4 A 125      -1.141  19.442  33.748  1.00  0.00     0.159 HD
ENDBRANCH  35  36
BRANCH  35  41
HETATM   41  CB6 0Q4 A 125      -2.060  16.653  31.534  1.00 32.55     0.035 C 
BRANCH  41  42
HETATM   42  CG6 0Q4 A 125      -2.984  16.602  30.267  1.00 32.73     0.002 C 
BRANCH  42  43
HETATM   43  CD4 0Q4 A 125      -2.634  17.666  29.154  1.00 31.59    -0.004 C 
HETATM   44  CE  0Q4 A 125      -1.410  18.471  29.538  1.00 23.29     0.005 C 
ENDBRANCH  42  43
ENDBRANCH  41  42
ENDBRANCH  35  41
ENDBRANCH  33  35
ENDBRANCH  29  31
ENDBRANCH  27  29
ENDBRANCH  24  25
BRANCH  24  45
HETATM   45  CB4 0Q4 A 125      -7.159  15.552  28.714  1.00 17.07     0.045 C 
BRANCH  45  46
HETATM   46  CG5 0Q4 A 125      -7.556  16.003  27.322  1.00 18.50     0.116 C 
BRANCH  46  47
HETATM   47  CD3 0Q4 A 125      -6.797  17.254  26.853  1.00 26.68     0.172 C 
HETATM   48  OE1 0Q4 A 125      -7.327  17.989  26.000  1.00 29.71    -0.648 OA
HETATM   49  OE2 0Q4 A 125      -5.664  17.521  27.333  1.00 31.35    -0.648 OA
ENDBRANCH  46  47
ENDBRANCH  45  46
ENDBRANCH  24  45
ENDBRANCH  22  24
ENDBRANCH  19  20
BRANCH  19  50
HETATM   50  CB3 0Q4 A 125     -11.170  18.112  27.792  1.00 18.22     0.073 C 
BRANCH  50  51
HETATM   51  CG4 0Q4 A 125     -12.181  19.171  27.592  1.00 21.59    -0.056 A 
HETATM   52  CD1 0Q4 A 125     -11.871  20.502  27.838  1.00 22.99     0.007 A 
HETATM   53  CE1 0Q4 A 125     -12.819  21.526  27.606  1.00 24.00     0.001 A 
HETATM   54  CZ1 0Q4 A 125     -14.095  21.210  27.129  1.00 25.64     0.000 A 
HETATM   55  CE2 0Q4 A 125     -14.422  19.877  26.888  1.00 27.27     0.001 A 
HETATM   56  CD2 0Q4 A 125     -13.452  18.856  27.123  1.00 24.65     0.007 A 
ENDBRANCH  50  51
ENDBRANCH  19  50
ENDBRANCH  17  19
ENDBRANCH  15  16
BRANCH  15  57
HETATM   57  CB2 0Q4 A 125     -13.556  19.119  31.656  1.00 19.32     0.034 C 
BRANCH  57  58
HETATM   58  CG3 0Q4 A 125     -14.149  20.241  30.757  1.00 21.12    -0.020 C 
HETATM   59  CD1 0Q4 A 125     -15.671  20.175  30.641  1.00 21.22     0.009 C 
HETATM   60  CD2 0Q4 A 125     -13.732  21.602  31.283  1.00 17.47     0.009 C 
ENDBRANCH  57  58
ENDBRANCH  15  57
ENDBRANCH  13  15
ENDBRANCH  10  11
BRANCH  10  61
HETATM   61  CB1 0Q4 A 125     -13.621  14.096  34.294  1.00 19.28     0.009 C 
HETATM   62  CG1 0Q4 A 125     -13.560  13.708  32.814  1.00 20.08     0.012 C 
HETATM   63  CG2 0Q4 A 125     -12.626  13.198  35.056  1.00 19.54     0.012 C 
ENDBRANCH  10  61
ENDBRANCH   8  10
ENDBRANCH   5   6
BRANCH   5  64
HETATM   64  CB  0Q4 A 125     -14.850  17.726  38.723  1.00 21.80     0.044 C 
BRANCH  64  65
HETATM   65  CG  0Q4 A 125     -15.929  18.217  39.748  1.00 26.69     0.023 C 
BRANCH  65  66
HETATM   66  CD  0Q4 A 125     -15.383  18.935  41.032  1.00 29.76     0.138 C 
BRANCH  66  67
HETATM   67  NE  0Q4 A 125     -13.924  18.883  41.195  1.00 32.26    -0.227 N 
HETATM   68  CZ  0Q4 A 125     -13.101  19.918  41.011  1.00 34.72     0.665 C 
HETATM   69  NH1 0Q4 A 125     -13.602  21.094  40.673  1.00 35.07    -0.235 N 
HETATM   70  NH2 0Q4 A 125     -11.770  19.751  41.043  1.00 35.86    -0.235 N 
HETATM   71 HH11 0Q4 A 125     -14.588  21.207  40.562  1.00 15.00     0.174 HD
HETATM   72 HH12 0Q4 A 125     -12.993  21.877  40.533  1.00 15.00     0.174 HD
HETATM   73 HH21 0Q4 A 125     -11.376  18.849  41.207  1.00 15.00     0.174 HD
HETATM   74 HH22 0Q4 A 125     -11.172  20.543  40.900  1.00 15.00     0.174 HD
HETATM   75  HE  0Q4 A 125     -13.513  18.029  41.456  1.00 15.00     0.177 HD
ENDBRANCH  66  67
ENDBRANCH  65  66
ENDBRANCH  64  65
ENDBRANCH   5  64
ENDBRANCH   1   5
TORSDOF 29
ENDMDL
MODEL 19
REMARK VINA RESULT:      -6.9      3.197     11.330
REMARK  29 active torsions:
REMARK  status: ('A' for Active; 'I' for Inactive)
REMARK    1  A    between atoms: N_1  and  CA_2 
REMARK    2  A    between atoms: CA_2  and  C_4 
REMARK    3  A    between atoms: CA_2  and  CB_6 
REMARK       I    between atoms: C_4  and  N1_19 
REMARK    4  A    between atoms: CB_6  and  CG_9 
REMARK    5  A    between atoms: CG_9  and  CD_12 
REMARK    6  A    between atoms: CD_12  and  NE_15 
REMARK       I    between atoms: NE_15  and  CZ_16 
REMARK       I    between atoms: CZ_16  and  NH1_17 
REMARK    7  A    between atoms: N1_19  and  CA1_20 
REMARK    8  A    between atoms: CA1_20  and  C1_22 
REMARK    9  A    between atoms: CA1_20  and  CB1_24 
REMARK       I    between atoms: C1_22  and  N2_34 
REMARK   10  A    between atoms: N2_34  and  CA2_35 
REMARK   11  A    between atoms: CA2_35  and  C2_37 
REMARK   12  A    between atoms: CA2_35  and  CB2_39 
REMARK   13  A    between atoms: CB2_39  and  CG3_42 
REMARK   14  A    between atoms: N3_52  and  CA3_53 
REMARK   15  A    between atoms: CA3_53  and  C3_55 
REMARK   16  A    between atoms: CA3_53  and  CB3_57 
REMARK       I    between atoms: C3_55  and  N4_71 
REMARK   17  A    between atoms: CB3_57  and  CG4_60 
REMARK   18  A    between atoms: N4_71  and  CA4_72 
REMARK   19  A    between atoms: CA4_72  and  C4_74 
REMARK   20  A    between atoms: CA4_72  and  CB4_76 
REMARK       I    between atoms: C4_74  and  N5_85 
REMARK   21  A    between atoms: CB4_76  and  CG5_79 
REMARK   22  A    between atoms: CG5_79  and  CD3_82 
REMARK   23  A    between atoms: N5_85  and  CA5_86 
REMARK   24  A    between atoms: CA5_86  and  C5_88 
REMARK       I    between atoms: C5_88  and  N6_94 
REMARK   25  A    between atoms: N6_94  and  CA6_95 
REMARK   26  A    between atoms: CA6_95  and  C6_97 
REMARK   27  A    between atoms: CA6_95  and  CB6_99 
REMARK       I    between atoms: C6_97  and  N7_112 
REMARK   28  A    between atoms: CB6_99  and  CG6_102 
REMARK   29  A    between atoms: CG6_102  and  CD4_105 
ROOT
HETATM    1  N   0Q4 A 125     -12.526  21.812  30.872  1.00 21.27    -0.067 N 
HETATM    2  H   0Q4 A 125     -11.581  21.563  30.549  1.00 15.00     0.275 HD
HETATM    3  H2  0Q4 A 125     -13.069  22.291  30.109  1.00 15.00     0.275 HD
HETATM    4  HN3 0Q4 A 125     -12.444  22.439  31.688  1.00 15.00     0.275 HD
ENDROOT
BRANCH   1   5
HETATM    5  CA  0Q4 A 125     -13.319  20.595  31.228  1.00 21.76     0.274 C 
BRANCH   5   6
HETATM    6  C   0Q4 A 125     -13.410  19.666  29.976  1.00 21.89     0.249 C 
HETATM    7  O   0Q4 A 125     -14.359  18.869  29.851  1.00 22.48    -0.271 OA
HETATM    8  N1  0Q4 A 125     -12.466  19.825  29.033  1.00 19.10    -0.346 N 
HETATM    9  H1  0Q4 A 125     -11.719  20.448  29.158  1.00 15.00     0.163 HD
BRANCH   8  10
HETATM   10  CA1 0Q4 A 125     -12.449  19.068  27.780  1.00 18.90     0.180 C 
BRANCH  10  11
HETATM   11  C1  0Q4 A 125     -11.676  17.730  27.918  1.00 17.14     0.241 C 
HETATM   12  O1  0Q4 A 125     -12.181  16.725  28.401  1.00 18.87    -0.271 OA
HETATM   13  N2  0Q4 A 125     -10.397  17.762  27.591  1.00 17.78    -0.350 N 
HETATM   14  HN2 0Q4 A 125      -9.990  18.605  27.289  1.00 15.00     0.163 HD
BRANCH  13  15
HETATM   15  CA2 0Q4 A 125      -9.588  16.558  27.615  1.00 17.96     0.123 C 
BRANCH  15  16
HETATM   16  C2  0Q4 A 125      -8.441  16.531  28.617  1.00 17.56     0.081 C 
HETATM   17  N3  0Q4 A 125      -7.227  16.587  28.099  1.00 16.64    -0.387 N 
HETATM   18  H3  0Q4 A 125      -7.143  16.632  27.127  1.00 15.00     0.159 HD
BRANCH  17  19
HETATM   19  CA3 0Q4 A 125      -6.001  16.614  28.906  1.00 16.89     0.177 C 
BRANCH  19  20
HETATM   20  C3  0Q4 A 125      -6.388  17.349  30.220  1.00 15.06     0.241 C 
HETATM   21  O2  0Q4 A 125      -6.468  18.579  30.242  1.00 12.51    -0.271 OA
HETATM   22  N4  0Q4 A 125      -6.729  16.584  31.257  1.00 14.54    -0.346 N 
HETATM   23  H4  0Q4 A 125      -6.643  15.607  31.195  1.00 15.00     0.163 HD
BRANCH  22  24
HETATM   24  CA4 0Q4 A 125      -7.191  17.131  32.536  1.00 15.81     0.177 C 
BRANCH  24  25
HETATM   25  C4  0Q4 A 125      -6.121  17.275  33.622  1.00 17.52     0.241 C 
HETATM   26  O3  0Q4 A 125      -6.372  17.767  34.725  1.00 17.50    -0.271 OA
HETATM   27  N5  0Q4 A 125      -4.886  16.988  33.245  1.00 19.61    -0.346 N 
HETATM   28  H5  0Q4 A 125      -4.700  16.705  32.323  1.00 15.00     0.163 HD
BRANCH  27  29
HETATM   29  CA5 0Q4 A 125      -3.784  17.077  34.179  1.00 21.82     0.172 C 
HETATM   30  CB5 0Q4 A 125      -4.121  16.242  35.399  1.00 22.24     0.042 C 
BRANCH  29  31
HETATM   31  C5  0Q4 A 125      -2.386  16.669  33.649  1.00 24.09     0.240 C 
HETATM   32  O4  0Q4 A 125      -2.248  15.987  32.632  1.00 20.88    -0.271 OA
HETATM   33  N6  0Q4 A 125      -1.369  17.065  34.408  1.00 27.66    -0.346 N 
HETATM   34  H6  0Q4 A 125      -1.571  17.567  35.216  1.00 15.00     0.163 HD
BRANCH  33  35
HETATM   35  CA6 0Q4 A 125       0.023  16.723  34.147  1.00 31.09     0.176 C 
BRANCH  35  36
HETATM   36  C6  0Q4 A 125       0.706  16.641  35.522  1.00 33.78     0.238 C 
HETATM   37  O5  0Q4 A 125       0.183  17.200  36.531  1.00 34.60    -0.271 OA
HETATM   38  N7  0Q4 A 125       1.802  16.029  35.563  1.00 36.53    -0.368 N 
HETATM   39  H72 0Q4 A 125       2.224  15.579  34.751  1.00  0.00     0.159 HD
HETATM   40  H71 0Q4 A 125       2.255  15.975  36.475  1.00  0.00     0.159 HD
ENDBRANCH  35  36
BRANCH  35  41
HETATM   41  CB6 0Q4 A 125       0.664  17.855  33.303  1.00 32.55     0.035 C 
BRANCH  41  42
HETATM   42  CG6 0Q4 A 125       2.068  17.575  32.659  1.00 32.73     0.002 C 
BRANCH  42  43
HETATM   43  CD4 0Q4 A 125       2.030  16.670  31.365  1.00 31.59    -0.004 C 
HETATM   44  CE  0Q4 A 125       3.128  17.059  30.397  1.00 23.29     0.005 C 
ENDBRANCH  42  43
ENDBRANCH  41  42
ENDBRANCH  35  41
ENDBRANCH  33  35
ENDBRANCH  29  31
ENDBRANCH  27  29
ENDBRANCH  24  25
BRANCH  24  45
HETATM   45  CB4 0Q4 A 125      -8.363  16.261  33.070  1.00 17.07     0.045 C 
BRANCH  45  46
HETATM   46  CG5 0Q4 A 125      -8.712  15.007  32.291  1.00 18.50     0.116 C 
BRANCH  46  47
HETATM   47  CD3 0Q4 A 125     -10.161  14.546  32.508  1.00 26.68     0.172 C 
HETATM   48  OE1 0Q4 A 125     -10.699  14.764  33.610  1.00 29.71    -0.648 OA
HETATM   49  OE2 0Q4 A 125     -10.784  13.962  31.582  1.00 31.35    -0.648 OA
ENDBRANCH  46  47
ENDBRANCH  45  46
ENDBRANCH  24  45
ENDBRANCH  22  24
ENDBRANCH  19  20
BRANCH  19  50
HETATM   50  CB3 0Q4 A 125      -4.896  17.288  28.039  1.00 18.22     0.073 C 
BRANCH  50  51
HETATM   51  CG4 0Q4 A 125      -3.522  17.184  28.575  1.00 21.59    -0.056 A 
HETATM   52  CD1 0Q4 A 125      -2.895  18.287  29.137  1.00 22.99     0.007 A 
HETATM   53  CE1 0Q4 A 125      -1.599  18.184  29.693  1.00 24.00     0.001 A 
HETATM   54  CZ1 0Q4 A 125      -0.921  16.961  29.678  1.00 25.64     0.000 A 
HETATM   55  CE2 0Q4 A 125      -1.536  15.848  29.107  1.00 27.27     0.001 A 
HETATM   56  CD2 0Q4 A 125      -2.846  15.968  28.554  1.00 24.65     0.007 A 
ENDBRANCH  50  51
ENDBRANCH  19  50
ENDBRANCH  17  19
ENDBRANCH  15  16
BRANCH  15  57
HETATM   57  CB2 0Q4 A 125      -9.117  16.220  26.180  1.00 19.32     0.034 C 
BRANCH  57  58
HETATM   58  CG3 0Q4 A 125      -9.384  14.758  25.722  1.00 21.12    -0.020 C 
HETATM   59  CD1 0Q4 A 125      -8.149  13.863  25.827  1.00 21.22     0.009 C 
HETATM   60  CD2 0Q4 A 125     -10.521  14.161  26.530  1.00 17.47     0.009 C 
ENDBRANCH  57  58
ENDBRANCH  15  57
ENDBRANCH  13  15
ENDBRANCH  10  11
BRANCH  10  61
HETATM   61  CB1 0Q4 A 125     -11.931  20.006  26.572  1.00 19.28     0.009 C 
HETATM   62  CG1 0Q4 A 125     -12.613  19.656  25.247  1.00 20.08     0.012 C 
HETATM   63  CG2 0Q4 A 125     -12.221  21.490  26.871  1.00 19.54     0.012 C 
ENDBRANCH  10  61
ENDBRANCH   8  10
ENDBRANCH   5   6
BRANCH   5  64
HETATM   64  CB  0Q4 A 125     -14.694  21.029  31.751  1.00 21.80     0.044 C 
BRANCH  64  65
HETATM   65  CG  0Q4 A 125     -15.439  20.029  32.699  1.00 26.69     0.023 C 
BRANCH  65  66
HETATM   66  CD  0Q4 A 125     -14.537  18.982  33.442  1.00 29.76     0.138 C 
BRANCH  66  67
HETATM   67  NE  0Q4 A 125     -14.452  17.668  32.791  1.00 32.26    -0.227 N 
HETATM   68  CZ  0Q4 A 125     -13.326  16.968  32.635  1.00 34.72     0.665 C 
HETATM   69  NH1 0Q4 A 125     -12.188  17.454  33.103  1.00 35.07    -0.235 N 
HETATM   70  NH2 0Q4 A 125     -13.312  15.842  31.906  1.00 35.86    -0.235 N 
HETATM   71 HH11 0Q4 A 125     -12.174  18.336  33.572  1.00 15.00     0.174 HD
HETATM   72 HH12 0Q4 A 125     -11.338  16.937  32.991  1.00 15.00     0.174 HD
HETATM   73 HH21 0Q4 A 125     -14.147  15.510  31.470  1.00 15.00     0.174 HD
HETATM   74 HH22 0Q4 A 125     -12.454  15.334  31.801  1.00 15.00     0.174 HD
HETATM   75  HE  0Q4 A 125     -15.277  17.266  32.440  1.00 15.00     0.177 HD
ENDBRANCH  66  67
ENDBRANCH  65  66
ENDBRANCH  64  65
ENDBRANCH   5  64
ENDBRANCH   1   5
TORSDOF 29
ENDMDL
MODEL 20
REMARK VINA RESULT:      -6.9      3.485     12.017
REMARK  29 active torsions:
REMARK  status: ('A' for Active; 'I' for Inactive)
REMARK    1  A    between atoms: N_1  and  CA_2 
REMARK    2  A    between atoms: CA_2  and  C_4 
REMARK    3  A    between atoms: CA_2  and  CB_6 
REMARK       I    between atoms: C_4  and  N1_19 
REMARK    4  A    between atoms: CB_6  and  CG_9 
REMARK    5  A    between atoms: CG_9  and  CD_12 
REMARK    6  A    between atoms: CD_12  and  NE_15 
REMARK       I    between atoms: NE_15  and  CZ_16 
REMARK       I    between atoms: CZ_16  and  NH1_17 
REMARK    7  A    between atoms: N1_19  and  CA1_20 
REMARK    8  A    between atoms: CA1_20  and  C1_22 
REMARK    9  A    between atoms: CA1_20  and  CB1_24 
REMARK       I    between atoms: C1_22  and  N2_34 
REMARK   10  A    between atoms: N2_34  and  CA2_35 
REMARK   11  A    between atoms: CA2_35  and  C2_37 
REMARK   12  A    between atoms: CA2_35  and  CB2_39 
REMARK   13  A    between atoms: CB2_39  and  CG3_42 
REMARK   14  A    between atoms: N3_52  and  CA3_53 
REMARK   15  A    between atoms: CA3_53  and  C3_55 
REMARK   16  A    between atoms: CA3_53  and  CB3_57 
REMARK       I    between atoms: C3_55  and  N4_71 
REMARK   17  A    between atoms: CB3_57  and  CG4_60 
REMARK   18  A    between atoms: N4_71  and  CA4_72 
REMARK   19  A    between atoms: CA4_72  and  C4_74 
REMARK   20  A    between atoms: CA4_72  and  CB4_76 
REMARK       I    between atoms: C4_74  and  N5_85 
REMARK   21  A    between atoms: CB4_76  and  CG5_79 
REMARK   22  A    between atoms: CG5_79  and  CD3_82 
REMARK   23  A    between atoms: N5_85  and  CA5_86 
REMARK   24  A    between atoms: CA5_86  and  C5_88 
REMARK       I    between atoms: C5_88  and  N6_94 
REMARK   25  A    between atoms: N6_94  and  CA6_95 
REMARK   26  A    between atoms: CA6_95  and  C6_97 
REMARK   27  A    between atoms: CA6_95  and  CB6_99 
REMARK       I    between atoms: C6_97  and  N7_112 
REMARK   28  A    between atoms: CB6_99  and  CG6_102 
REMARK   29  A    between atoms: CG6_102  and  CD4_105 
ROOT
HETATM    1  N   0Q4 A 125     -11.033  20.310  28.641  1.00 21.27    -0.067 N 
HETATM    2  H   0Q4 A 125     -10.836  19.628  29.386  1.00 15.00     0.275 HD
HETATM    3  H2  0Q4 A 125     -11.307  19.824  27.750  1.00 15.00     0.275 HD
HETATM    4  HN3 0Q4 A 125     -10.188  20.881  28.482  1.00 15.00     0.275 HD
ENDROOT
BRANCH   1   5
HETATM    5  CA  0Q4 A 125     -12.193  21.185  28.996  1.00 21.76     0.274 C 
BRANCH   5   6
HETATM    6  C   0Q4 A 125     -12.828  20.669  30.327  1.00 21.89     0.249 C 
HETATM    7  O   0Q4 A 125     -12.963  21.437  31.298  1.00 22.48    -0.271 OA
HETATM    8  N1  0Q4 A 125     -13.273  19.402  30.334  1.00 19.10    -0.346 N 
HETATM    9  H1  0Q4 A 125     -13.144  18.810  29.562  1.00 15.00     0.163 HD
BRANCH   8  10
HETATM   10  CA1 0Q4 A 125     -13.942  18.793  31.486  1.00 18.90     0.180 C 
BRANCH  10  11
HETATM   11  C1  0Q4 A 125     -12.996  17.855  32.280  1.00 17.14     0.241 C 
HETATM   12  O1  0Q4 A 125     -12.739  18.027  33.465  1.00 18.87    -0.271 OA
HETATM   13  N2  0Q4 A 125     -12.382  16.920  31.577  1.00 17.78    -0.350 N 
HETATM   14  HN2 0Q4 A 125     -12.536  16.856  30.608  1.00 15.00     0.163 HD
BRANCH  13  15
HETATM   15  CA2 0Q4 A 125     -11.525  15.942  32.221  1.00 17.96     0.123 C 
BRANCH  15  16
HETATM   16  C2  0Q4 A 125     -10.288  15.509  31.446  1.00 17.56     0.081 C 
HETATM   17  N3  0Q4 A 125      -9.208  16.248  31.632  1.00 16.64    -0.387 N 
HETATM   18  H3  0Q4 A 125      -9.274  17.013  32.235  1.00 15.00     0.159 HD
BRANCH  17  19
HETATM   19  CA3 0Q4 A 125      -7.912  15.963  31.005  1.00 16.89     0.177 C 
BRANCH  19  20
HETATM   20  C3  0Q4 A 125      -6.857  16.675  31.896  1.00 15.06     0.241 C 
HETATM   21  O2  0Q4 A 125      -7.047  17.833  32.277  1.00 12.51    -0.271 OA
HETATM   22  N4  0Q4 A 125      -5.822  15.941  32.305  1.00 14.54    -0.346 N 
HETATM   23  H4  0Q4 A 125      -5.709  15.025  31.969  1.00 15.00     0.163 HD
BRANCH  22  24
HETATM   24  CA4 0Q4 A 125      -4.789  16.450  33.210  1.00 15.81     0.177 C 
BRANCH  24  25
HETATM   25  C4  0Q4 A 125      -3.344  16.290  32.727  1.00 17.52     0.241 C 
HETATM   26  O3  0Q4 A 125      -2.683  15.276  32.967  1.00 17.50    -0.271 OA
HETATM   27  N5  0Q4 A 125      -2.805  17.366  32.181  1.00 19.61    -0.346 N 
HETATM   28  H5  0Q4 A 125      -3.322  18.199  32.105  1.00 15.00     0.163 HD
BRANCH  27  29
HETATM   29  CA5 0Q4 A 125      -1.448  17.345  31.678  1.00 21.82     0.172 C 
HETATM   30  CB5 0Q4 A 125      -1.391  18.183  30.415  1.00 22.24     0.042 C 
BRANCH  29  31
HETATM   31  C5  0Q4 A 125      -0.336  17.811  32.651  1.00 24.09     0.240 C 
HETATM   32  O4  0Q4 A 125       0.056  18.980  32.681  1.00 20.88    -0.271 OA
HETATM   33  N6  0Q4 A 125       0.189  16.845  33.397  1.00 27.66    -0.346 N 
HETATM   34  H6  0Q4 A 125      -0.154  15.942  33.282  1.00 15.00     0.163 HD
BRANCH  33  35
HETATM   35  CA6 0Q4 A 125       1.301  17.040  34.318  1.00 31.09     0.176 C 
BRANCH  35  36
HETATM   36  C6  0Q4 A 125       2.573  16.686  33.531  1.00 33.78     0.238 C 
HETATM   37  O5  0Q4 A 125       2.640  15.606  32.873  1.00 34.60    -0.271 OA
HETATM   38  N7  0Q4 A 125       3.524  17.502  33.613  1.00 36.53    -0.368 N 
HETATM   39  H72 0Q4 A 125       3.471  18.372  34.143  1.00  0.00     0.159 HD
HETATM   40  H71 0Q4 A 125       4.368  17.267  33.091  1.00  0.00     0.159 HD
ENDBRANCH  35  36
BRANCH  35  41
HETATM   41  CB6 0Q4 A 125       1.131  16.070  35.516  1.00 32.55     0.035 C 
BRANCH  41  42
HETATM   42  CG6 0Q4 A 125       0.638  16.674  36.878  1.00 32.73     0.002 C 
BRANCH  42  43
HETATM   43  CD4 0Q4 A 125      -0.888  16.419  37.197  1.00 31.59    -0.004 C 
HETATM   44  CE  0Q4 A 125      -1.778  17.146  36.211  1.00 23.29     0.005 C 
ENDBRANCH  42  43
ENDBRANCH  41  42
ENDBRANCH  35  41
ENDBRANCH  33  35
ENDBRANCH  29  31
ENDBRANCH  27  29
ENDBRANCH  24  25
BRANCH  24  45
HETATM   45  CB4 0Q4 A 125      -4.951  15.776  34.602  1.00 17.07     0.045 C 
BRANCH  45  46
HETATM   46  CG5 0Q4 A 125      -6.364  15.536  35.099  1.00 18.50     0.116 C 
BRANCH  46  47
HETATM   47  CD3 0Q4 A 125      -6.905  16.689  35.958  1.00 26.68     0.172 C 
HETATM   48  OE1 0Q4 A 125      -7.437  16.420  37.051  1.00 29.71    -0.648 OA
HETATM   49  OE2 0Q4 A 125      -6.803  17.878  35.556  1.00 31.35    -0.648 OA
ENDBRANCH  46  47
ENDBRANCH  45  46
ENDBRANCH  24  45
ENDBRANCH  22  24
ENDBRANCH  19  20
BRANCH  19  50
HETATM   50  CB3 0Q4 A 125      -8.003  16.443  29.526  1.00 18.22     0.073 C 
BRANCH  50  51
HETATM   51  CG4 0Q4 A 125      -7.657  15.427  28.510  1.00 21.59    -0.056 A 
HETATM   52  CD1 0Q4 A 125      -8.368  15.343  27.321  1.00 22.99     0.007 A 
HETATM   53  CE1 0Q4 A 125      -8.015  14.404  26.324  1.00 24.00     0.001 A 
HETATM   54  CZ1 0Q4 A 125      -6.940  13.532  26.527  1.00 25.64     0.000 A 
HETATM   55  CE2 0Q4 A 125      -6.224  13.599  27.722  1.00 27.27     0.001 A 
HETATM   56  CD2 0Q4 A 125      -6.591  14.556  28.715  1.00 24.65     0.007 A 
ENDBRANCH  50  51
ENDBRANCH  19  50
ENDBRANCH  17  19
ENDBRANCH  15  16
BRANCH  15  57
HETATM   57  CB2 0Q4 A 125     -12.374  14.733  32.686  1.00 19.32     0.034 C 
BRANCH  57  58
HETATM   58  CG3 0Q4 A 125     -12.661  14.674  34.213  1.00 21.12    -0.020 C 
HETATM   59  CD1 0Q4 A 125     -14.108  15.017  34.564  1.00 21.22     0.009 C 
HETATM   60  CD2 0Q4 A 125     -12.314  13.299  34.752  1.00 17.47     0.009 C 
ENDBRANCH  57  58
ENDBRANCH  15  57
ENDBRANCH  13  15
ENDBRANCH  10  11
BRANCH  10  61
HETATM   61  CB1 0Q4 A 125     -15.323  18.097  31.023  1.00 19.28     0.009 C 
HETATM   62  CG1 0Q4 A 125     -15.237  16.570  31.078  1.00 20.08     0.012 C 
HETATM   63  CG2 0Q4 A 125     -16.486  18.534  31.936  1.00 19.54     0.012 C 
ENDBRANCH  10  61
ENDBRANCH   8  10
ENDBRANCH   5   6
BRANCH   5  64
HETATM   64  CB  0Q4 A 125     -13.185  21.199  27.826  1.00 21.80     0.044 C 
BRANCH  64  65
HETATM   65  CG  0Q4 A 125     -12.652  20.703  26.438  1.00 26.69     0.023 C 
BRANCH  65  66
HETATM   66  CD  0Q4 A 125     -13.216  19.328  25.935  1.00 29.76     0.138 C 
BRANCH  66  67
HETATM   67  NE  0Q4 A 125     -13.467  18.340  26.993  1.00 32.26    -0.227 N 
HETATM   68  CZ  0Q4 A 125     -12.672  17.303  27.269  1.00 34.72     0.665 C 
HETATM   69  NH1 0Q4 A 125     -11.563  17.131  26.570  1.00 35.07    -0.235 N 
HETATM   70  NH2 0Q4 A 125     -13.045  16.368  28.156  1.00 35.86    -0.235 N 
HETATM   71 HH11 0Q4 A 125     -11.320  17.775  25.846  1.00 15.00     0.174 HD
HETATM   72 HH12 0Q4 A 125     -10.960  16.356  26.768  1.00 15.00     0.174 HD
HETATM   73 HH21 0Q4 A 125     -13.923  16.437  28.626  1.00 15.00     0.174 HD
HETATM   74 HH22 0Q4 A 125     -12.433  15.598  28.345  1.00 15.00     0.174 HD
HETATM   75  HE  0Q4 A 125     -14.276  18.438  27.543  1.00 15.00     0.177 HD
ENDBRANCH  66  67
ENDBRANCH  65  66
ENDBRANCH  64  65
ENDBRANCH   5  64
ENDBRANCH   1   5
TORSDOF 29
ENDMDL
