MODEL 1
REMARK VINA RESULT:      -7.9      0.000      0.000
REMARK  29 active torsions:
REMARK  status: ('A' for Active; 'I' for Inactive)
REMARK    1  A    between atoms: N_1  and  CA_2 
REMARK    2  A    between atoms: CA_2  and  C_4 
REMARK    3  A    between atoms: CA_2  and  CB_6 
REMARK       I    between atoms: C_4  and  N1_19 
REMARK    4  A    between atoms: CB_6  and  CG_9 
REMARK    5  A    between atoms: CG_9  and  CD_12 
REMARK    6  A    between atoms: CD_12  and  NE_15 
REMARK       I    between atoms: NE_15  and  CZ_16 
REMARK       I    between atoms: CZ_16  and  NH1_17 
REMARK    7  A    between atoms: N1_19  and  CA1_20 
REMARK    8  A    between atoms: CA1_20  and  C1_22 
REMARK    9  A    between atoms: CA1_20  and  CB1_24 
REMARK       I    between atoms: C1_22  and  N2_34 
REMARK   10  A    between atoms: N2_34  and  CA2_35 
REMARK   11  A    between atoms: CA2_35  and  C2_37 
REMARK   12  A    between atoms: CA2_35  and  CB2_39 
REMARK   13  A    between atoms: CB2_39  and  CG3_42 
REMARK   14  A    between atoms: N3_52  and  CA3_53 
REMARK   15  A    between atoms: CA3_53  and  C3_55 
REMARK   16  A    between atoms: CA3_53  and  CB3_57 
REMARK       I    between atoms: C3_55  and  N4_71 
REMARK   17  A    between atoms: CB3_57  and  CG4_60 
REMARK   18  A    between atoms: N4_71  and  CA4_72 
REMARK   19  A    between atoms: CA4_72  and  C4_74 
REMARK   20  A    between atoms: CA4_72  and  CB4_76 
REMARK       I    between atoms: C4_74  and  N5_85 
REMARK   21  A    between atoms: CB4_76  and  CG5_79 
REMARK   22  A    between atoms: CG5_79  and  CD3_82 
REMARK   23  A    between atoms: N5_85  and  CA5_86 
REMARK   24  A    between atoms: CA5_86  and  C5_88 
REMARK       I    between atoms: C5_88  and  N6_94 
REMARK   25  A    between atoms: N6_94  and  CA6_95 
REMARK   26  A    between atoms: CA6_95  and  C6_97 
REMARK   27  A    between atoms: CA6_95  and  CB6_99 
REMARK       I    between atoms: C6_97  and  N7_112 
REMARK   28  A    between atoms: CB6_99  and  CG6_102 
REMARK   29  A    between atoms: CG6_102  and  CD4_105 
ROOT
HETATM    1  N   0Q4 A 125     -10.818  16.533  32.830  1.00 21.27    -0.067 N 
HETATM    2  H   0Q4 A 125     -10.857  17.176  32.026  1.00 15.00     0.275 HD
HETATM    3  H2  0Q4 A 125     -11.736  16.517  33.342  1.00 15.00     0.275 HD
HETATM    4  HN3 0Q4 A 125     -10.067  16.844  33.467  1.00 15.00     0.275 HD
ENDROOT
BRANCH   1   5
HETATM    5  CA  0Q4 A 125     -10.576  15.124  32.390  1.00 21.76     0.274 C 
BRANCH   5   6
HETATM    6  C   0Q4 A 125     -10.950  14.994  30.879  1.00 21.89     0.249 C 
HETATM    7  O   0Q4 A 125     -11.534  13.976  30.462  1.00 22.48    -0.271 OA
HETATM    8  N1  0Q4 A 125     -10.676  16.048  30.094  1.00 19.10    -0.346 N 
HETATM    9  H1  0Q4 A 125     -10.202  16.834  30.441  1.00 15.00     0.163 HD
BRANCH   8  10
HETATM   10  CA1 0Q4 A 125     -11.017  16.098  28.671  1.00 18.90     0.180 C 
BRANCH  10  11
HETATM   11  C1  0Q4 A 125      -9.758  16.026  27.767  1.00 17.14     0.241 C 
HETATM   12  O1  0Q4 A 125      -9.785  15.559  26.636  1.00 18.87    -0.271 OA
HETATM   13  N2  0Q4 A 125      -8.619  16.390  28.329  1.00 17.78    -0.350 N 
HETATM   14  HN2 0Q4 A 125      -8.607  16.678  29.269  1.00 15.00     0.163 HD
BRANCH  13  15
HETATM   15  CA2 0Q4 A 125      -7.387  16.428  27.564  1.00 17.96     0.123 C 
BRANCH  15  16
HETATM   16  C2  0Q4 A 125      -6.134  15.927  28.271  1.00 17.56     0.081 C 
HETATM   17  N3  0Q4 A 125      -6.232  15.787  29.581  1.00 16.64    -0.387 N 
HETATM   18  H3  0Q4 A 125      -7.080  16.018  30.005  1.00 15.00     0.159 HD
BRANCH  17  19
HETATM   19  CA3 0Q4 A 125      -5.145  15.278  30.426  1.00 16.89     0.177 C 
BRANCH  19  20
HETATM   20  C3  0Q4 A 125      -4.955  16.345  31.540  1.00 15.06     0.241 C 
HETATM   21  O2  0Q4 A 125      -5.427  17.476  31.403  1.00 12.51    -0.271 OA
HETATM   22  N4  0Q4 A 125      -4.369  15.938  32.667  1.00 14.54    -0.346 N 
HETATM   23  H4  0Q4 A 125      -4.003  15.029  32.727  1.00 15.00     0.163 HD
BRANCH  22  24
HETATM   24  CA4 0Q4 A 125      -4.190  16.806  33.833  1.00 15.81     0.177 C 
BRANCH  24  25
HETATM   25  C4  0Q4 A 125      -2.761  17.300  34.082  1.00 17.52     0.241 C 
HETATM   26  O3  0Q4 A 125      -2.250  18.192  33.402  1.00 17.50    -0.271 OA
HETATM   27  N5  0Q4 A 125      -2.064  16.600  34.961  1.00 19.61    -0.346 N 
HETATM   28  H5  0Q4 A 125      -2.463  15.820  35.407  1.00 15.00     0.163 HD
BRANCH  27  29
HETATM   29  CA5 0Q4 A 125      -0.703  16.966  35.292  1.00 21.82     0.172 C 
HETATM   30  CB5 0Q4 A 125      -0.476  16.688  36.765  1.00 22.24     0.042 C 
BRANCH  29  31
HETATM   31  C5  0Q4 A 125       0.420  16.291  34.465  1.00 24.09     0.240 C 
HETATM   32  O4  0Q4 A 125       0.227  15.255  33.827  1.00 20.88    -0.271 OA
HETATM   33  N6  0Q4 A 125       1.605  16.887  34.551  1.00 27.66    -0.346 N 
HETATM   34  H6  0Q4 A 125       1.678  17.680  35.109  1.00 15.00     0.163 HD
BRANCH  33  35
HETATM   35  CA6 0Q4 A 125       2.820  16.380  33.926  1.00 31.09     0.176 C 
BRANCH  35  36
HETATM   36  C6  0Q4 A 125       3.977  16.785  34.854  1.00 33.78     0.238 C 
HETATM   37  O5  0Q4 A 125       5.178  16.638  34.481  1.00 34.60    -0.271 OA
HETATM   38  N7  0Q4 A 125       3.656  17.224  35.986  1.00 36.53    -0.368 N 
HETATM   39  H72 0Q4 A 125       2.688  17.342  36.287  1.00  0.00     0.159 HD
HETATM   40  H71 0Q4 A 125       4.423  17.492  36.601  1.00  0.00     0.159 HD
ENDBRANCH  35  36
BRANCH  35  41
HETATM   41  CB6 0Q4 A 125       2.988  17.057  32.541  1.00 32.55     0.035 C 
BRANCH  41  42
HETATM   42  CG6 0Q4 A 125       3.215  16.126  31.299  1.00 32.73     0.002 C 
BRANCH  42  43
HETATM   43  CD4 0Q4 A 125       3.458  16.891  29.939  1.00 31.59    -0.004 C 
HETATM   44  CE  0Q4 A 125       4.285  16.053  28.985  1.00 23.29     0.005 C 
ENDBRANCH  42  43
ENDBRANCH  41  42
ENDBRANCH  35  41
ENDBRANCH  33  35
ENDBRANCH  29  31
ENDBRANCH  27  29
ENDBRANCH  24  25
BRANCH  24  45
HETATM   45  CB4 0Q4 A 125      -4.718  16.076  35.100  1.00 17.07     0.045 C 
BRANCH  45  46
HETATM   46  CG5 0Q4 A 125      -6.216  15.871  35.213  1.00 18.50     0.116 C 
BRANCH  46  47
HETATM   47  CD3 0Q4 A 125      -7.026  17.120  34.832  1.00 26.68     0.172 C 
HETATM   48  OE1 0Q4 A 125      -6.968  18.118  35.573  1.00 29.71    -0.648 OA
HETATM   49  OE2 0Q4 A 125      -7.728  17.122  33.786  1.00 31.35    -0.648 OA
ENDBRANCH  46  47
ENDBRANCH  45  46
ENDBRANCH  24  45
ENDBRANCH  22  24
ENDBRANCH  19  20
BRANCH  19  50
HETATM   50  CB3 0Q4 A 125      -3.920  15.027  29.497  1.00 18.22     0.073 C 
BRANCH  50  51
HETATM   51  CG4 0Q4 A 125      -2.801  15.979  29.656  1.00 21.59    -0.056 A 
HETATM   52  CD1 0Q4 A 125      -2.798  17.189  28.976  1.00 22.99     0.007 A 
HETATM   53  CE1 0Q4 A 125      -1.754  18.125  29.158  1.00 24.00     0.001 A 
HETATM   54  CZ1 0Q4 A 125      -0.696  17.840  30.027  1.00 25.64     0.000 A 
HETATM   55  CE2 0Q4 A 125      -0.682  16.624  30.709  1.00 27.27     0.001 A 
HETATM   56  CD2 0Q4 A 125      -1.747  15.692  30.517  1.00 24.65     0.007 A 
ENDBRANCH  50  51
ENDBRANCH  19  50
ENDBRANCH  17  19
ENDBRANCH  15  16
BRANCH  15  57
HETATM   57  CB2 0Q4 A 125      -7.192  17.841  26.963  1.00 19.32     0.034 C 
BRANCH  57  58
HETATM   58  CG3 0Q4 A 125      -5.830  18.517  27.287  1.00 21.12    -0.020 C 
HETATM   59  CD1 0Q4 A 125      -5.214  19.231  26.084  1.00 21.22     0.009 C 
HETATM   60  CD2 0Q4 A 125      -5.998  19.496  28.434  1.00 17.47     0.009 C 
ENDBRANCH  57  58
ENDBRANCH  15  57
ENDBRANCH  13  15
ENDBRANCH  10  11
BRANCH  10  61
HETATM   61  CB1 0Q4 A 125     -11.969  17.367  28.372  1.00 19.28     0.009 C 
HETATM   62  CG1 0Q4 A 125     -11.327  18.340  27.381  1.00 20.08     0.012 C 
HETATM   63  CG2 0Q4 A 125     -13.315  16.910  27.774  1.00 19.54     0.012 C 
ENDBRANCH  10  61
ENDBRANCH   8  10
ENDBRANCH   5   6
BRANCH   5  64
HETATM   64  CB  0Q4 A 125     -11.380  14.175  33.289  1.00 21.80     0.044 C 
BRANCH  64  65
HETATM   65  CG  0Q4 A 125     -12.560  14.803  34.107  1.00 26.69     0.023 C 
BRANCH  65  66
HETATM   66  CD  0Q4 A 125     -12.490  14.623  35.665  1.00 29.76     0.138 C 
BRANCH  66  67
HETATM   67  NE  0Q4 A 125     -13.103  15.710  36.440  1.00 32.26    -0.227 N 
HETATM   68  CZ  0Q4 A 125     -13.950  15.535  37.457  1.00 34.72     0.665 C 
HETATM   69  NH1 0Q4 A 125     -14.270  14.308  37.832  1.00 35.07    -0.235 N 
HETATM   70  NH2 0Q4 A 125     -14.572  16.582  38.020  1.00 35.86    -0.235 N 
HETATM   71 HH11 0Q4 A 125     -13.878  13.520  37.360  1.00 15.00     0.174 HD
HETATM   72 HH12 0Q4 A 125     -14.904  14.166  38.594  1.00 15.00     0.174 HD
HETATM   73 HH21 0Q4 A 125     -14.409  17.508  37.687  1.00 15.00     0.174 HD
HETATM   74 HH22 0Q4 A 125     -15.205  16.426  38.781  1.00 15.00     0.174 HD
HETATM   75  HE  0Q4 A 125     -12.881  16.637  36.200  1.00 15.00     0.177 HD
ENDBRANCH  66  67
ENDBRANCH  65  66
ENDBRANCH  64  65
ENDBRANCH   5  64
ENDBRANCH   1   5
TORSDOF 29
ENDMDL
MODEL 2
REMARK VINA RESULT:      -7.6      2.643      6.354
REMARK  29 active torsions:
REMARK  status: ('A' for Active; 'I' for Inactive)
REMARK    1  A    between atoms: N_1  and  CA_2 
REMARK    2  A    between atoms: CA_2  and  C_4 
REMARK    3  A    between atoms: CA_2  and  CB_6 
REMARK       I    between atoms: C_4  and  N1_19 
REMARK    4  A    between atoms: CB_6  and  CG_9 
REMARK    5  A    between atoms: CG_9  and  CD_12 
REMARK    6  A    between atoms: CD_12  and  NE_15 
REMARK       I    between atoms: NE_15  and  CZ_16 
REMARK       I    between atoms: CZ_16  and  NH1_17 
REMARK    7  A    between atoms: N1_19  and  CA1_20 
REMARK    8  A    between atoms: CA1_20  and  C1_22 
REMARK    9  A    between atoms: CA1_20  and  CB1_24 
REMARK       I    between atoms: C1_22  and  N2_34 
REMARK   10  A    between atoms: N2_34  and  CA2_35 
REMARK   11  A    between atoms: CA2_35  and  C2_37 
REMARK   12  A    between atoms: CA2_35  and  CB2_39 
REMARK   13  A    between atoms: CB2_39  and  CG3_42 
REMARK   14  A    between atoms: N3_52  and  CA3_53 
REMARK   15  A    between atoms: CA3_53  and  C3_55 
REMARK   16  A    between atoms: CA3_53  and  CB3_57 
REMARK       I    between atoms: C3_55  and  N4_71 
REMARK   17  A    between atoms: CB3_57  and  CG4_60 
REMARK   18  A    between atoms: N4_71  and  CA4_72 
REMARK   19  A    between atoms: CA4_72  and  C4_74 
REMARK   20  A    between atoms: CA4_72  and  CB4_76 
REMARK       I    between atoms: C4_74  and  N5_85 
REMARK   21  A    between atoms: CB4_76  and  CG5_79 
REMARK   22  A    between atoms: CG5_79  and  CD3_82 
REMARK   23  A    between atoms: N5_85  and  CA5_86 
REMARK   24  A    between atoms: CA5_86  and  C5_88 
REMARK       I    between atoms: C5_88  and  N6_94 
REMARK   25  A    between atoms: N6_94  and  CA6_95 
REMARK   26  A    between atoms: CA6_95  and  C6_97 
REMARK   27  A    between atoms: CA6_95  and  CB6_99 
REMARK       I    between atoms: C6_97  and  N7_112 
REMARK   28  A    between atoms: CB6_99  and  CG6_102 
REMARK   29  A    between atoms: CG6_102  and  CD4_105 
ROOT
HETATM    1  N   0Q4 A 125     -12.043  21.426  29.364  1.00 21.27    -0.067 N 
HETATM    2  H   0Q4 A 125     -11.496  21.592  30.221  1.00 15.00     0.275 HD
HETATM    3  H2  0Q4 A 125     -11.462  20.938  28.637  1.00 15.00     0.275 HD
HETATM    4  HN3 0Q4 A 125     -12.370  22.335  28.999  1.00 15.00     0.275 HD
ENDROOT
BRANCH   1   5
HETATM    5  CA  0Q4 A 125     -13.205  20.522  29.625  1.00 21.76     0.274 C 
BRANCH   5   6
HETATM    6  C   0Q4 A 125     -13.241  20.170  31.147  1.00 21.89     0.249 C 
HETATM    7  O   0Q4 A 125     -13.061  21.057  32.002  1.00 22.48    -0.271 OA
HETATM    8  N1  0Q4 A 125     -13.542  18.901  31.468  1.00 19.10    -0.346 N 
HETATM    9  H1  0Q4 A 125     -13.666  18.215  30.778  1.00 15.00     0.163 HD
BRANCH   8  10
HETATM   10  CA1 0Q4 A 125     -13.669  18.432  32.849  1.00 18.90     0.180 C 
BRANCH  10  11
HETATM   11  C1  0Q4 A 125     -12.983  17.058  33.063  1.00 17.14     0.241 C 
HETATM   12  O1  0Q4 A 125     -13.176  16.372  34.059  1.00 18.87    -0.271 OA
HETATM   13  N2  0Q4 A 125     -12.079  16.714  32.162  1.00 17.78    -0.350 N 
HETATM   14  HN2 0Q4 A 125     -11.875  17.322  31.417  1.00 15.00     0.163 HD
BRANCH  13  15
HETATM   15  CA2 0Q4 A 125     -11.419  15.423  32.219  1.00 17.96     0.123 C 
BRANCH  15  16
HETATM   16  C2  0Q4 A 125     -10.051  15.389  32.889  1.00 17.56     0.081 C 
HETATM   17  N3  0Q4 A 125      -9.236  16.381  32.578  1.00 16.64    -0.387 N 
HETATM   18  H3  0Q4 A 125      -9.552  17.054  31.944  1.00 15.00     0.159 HD
BRANCH  17  19
HETATM   19  CA3 0Q4 A 125      -7.896  16.541  33.153  1.00 16.89     0.177 C 
BRANCH  19  20
HETATM   20  C3  0Q4 A 125      -6.936  16.666  31.937  1.00 15.06     0.241 C 
HETATM   21  O2  0Q4 A 125      -6.825  17.742  31.343  1.00 12.51    -0.271 OA
HETATM   22  N4  0Q4 A 125      -6.178  15.605  31.658  1.00 14.54    -0.346 N 
HETATM   23  H4  0Q4 A 125      -6.307  14.768  32.155  1.00 15.00     0.163 HD
BRANCH  22  24
HETATM   24  CA4 0Q4 A 125      -5.172  15.600  30.593  1.00 15.81     0.177 C 
BRANCH  24  25
HETATM   25  C4  0Q4 A 125      -3.909  16.422  30.867  1.00 17.52     0.241 C 
HETATM   26  O3  0Q4 A 125      -3.413  17.161  30.013  1.00 17.50    -0.271 OA
HETATM   27  N5  0Q4 A 125      -3.302  16.166  32.013  1.00 19.61    -0.346 N 
HETATM   28  H5  0Q4 A 125      -3.661  15.487  32.626  1.00 15.00     0.163 HD
BRANCH  27  29
HETATM   29  CA5 0Q4 A 125      -2.102  16.880  32.394  1.00 21.82     0.172 C 
HETATM   30  CB5 0Q4 A 125      -2.296  17.429  33.795  1.00 22.24     0.042 C 
BRANCH  29  31
HETATM   31  C5  0Q4 A 125      -0.771  16.089  32.335  1.00 24.09     0.240 C 
HETATM   32  O4  0Q4 A 125      -0.747  14.858  32.266  1.00 20.88    -0.271 OA
HETATM   33  N6  0Q4 A 125       0.323  16.837  32.422  1.00 27.66    -0.346 N 
HETATM   34  H6  0Q4 A 125       0.212  17.799  32.514  1.00 15.00     0.163 HD
BRANCH  33  35
HETATM   35  CA6 0Q4 A 125       1.676  16.300  32.471  1.00 31.09     0.176 C 
BRANCH  35  36
HETATM   36  C6  0Q4 A 125       2.141  16.447  33.930  1.00 33.78     0.238 C 
HETATM   37  O5  0Q4 A 125       1.805  15.589  34.798  1.00 34.60    -0.271 OA
HETATM   38  N7  0Q4 A 125       2.825  17.466  34.196  1.00 36.53    -0.368 N 
HETATM   39  H72 0Q4 A 125       3.096  18.157  33.497  1.00  0.00     0.159 HD
HETATM   40  H71 0Q4 A 125       3.133  17.563  35.164  1.00  0.00     0.159 HD
ENDBRANCH  35  36
BRANCH  35  41
HETATM   41  CB6 0Q4 A 125       2.582  17.145  31.539  1.00 32.55     0.035 C 
BRANCH  41  42
HETATM   42  CG6 0Q4 A 125       3.923  16.497  31.043  1.00 32.73     0.002 C 
BRANCH  42  43
HETATM   43  CD4 0Q4 A 125       4.113  16.494  29.475  1.00 31.59    -0.004 C 
HETATM   44  CE  0Q4 A 125       4.243  15.081  28.946  1.00 23.29     0.005 C 
ENDBRANCH  42  43
ENDBRANCH  41  42
ENDBRANCH  35  41
ENDBRANCH  33  35
ENDBRANCH  29  31
ENDBRANCH  27  29
ENDBRANCH  24  25
BRANCH  24  45
HETATM   45  CB4 0Q4 A 125      -5.829  16.078  29.267  1.00 17.07     0.045 C 
BRANCH  45  46
HETATM   46  CG5 0Q4 A 125      -5.472  15.323  28.001  1.00 18.50     0.116 C 
BRANCH  46  47
HETATM   47  CD3 0Q4 A 125      -5.726  16.135  26.722  1.00 26.68     0.172 C 
HETATM   48  OE1 0Q4 A 125      -5.806  15.530  25.637  1.00 29.71    -0.648 OA
HETATM   49  OE2 0Q4 A 125      -5.852  17.386  26.784  1.00 31.35    -0.648 OA
ENDBRANCH  46  47
ENDBRANCH  45  46
ENDBRANCH  24  45
ENDBRANCH  22  24
ENDBRANCH  19  20
BRANCH  19  50
HETATM   50  CB3 0Q4 A 125      -7.654  15.326  34.098  1.00 18.22     0.073 C 
BRANCH  50  51
HETATM   51  CG4 0Q4 A 125      -6.895  15.626  35.330  1.00 21.59    -0.056 A 
HETATM   52  CD1 0Q4 A 125      -7.533  16.153  36.444  1.00 22.99     0.007 A 
HETATM   53  CE1 0Q4 A 125      -6.823  16.401  37.642  1.00 24.00     0.001 A 
HETATM   54  CZ1 0Q4 A 125      -5.454  16.123  37.720  1.00 25.64     0.000 A 
HETATM   55  CE2 0Q4 A 125      -4.800  15.602  36.604  1.00 27.27     0.001 A 
HETATM   56  CD2 0Q4 A 125      -5.533  15.355  35.404  1.00 24.65     0.007 A 
ENDBRANCH  50  51
ENDBRANCH  19  50
ENDBRANCH  17  19
ENDBRANCH  15  16
BRANCH  15  57
HETATM   57  CB2 0Q4 A 125     -11.393  14.790  30.807  1.00 19.32     0.034 C 
BRANCH  57  58
HETATM   58  CG3 0Q4 A 125     -10.818  15.699  29.683  1.00 21.12    -0.020 C 
HETATM   59  CD1 0Q4 A 125      -9.454  15.234  29.176  1.00 21.22     0.009 C 
HETATM   60  CD2 0Q4 A 125     -11.798  15.776  28.527  1.00 17.47     0.009 C 
ENDBRANCH  57  58
ENDBRANCH  15  57
ENDBRANCH  13  15
ENDBRANCH  10  11
BRANCH  10  61
HETATM   61  CB1 0Q4 A 125     -15.216  18.474  33.311  1.00 19.28     0.009 C 
HETATM   62  CG1 0Q4 A 125     -15.669  19.895  33.652  1.00 20.08     0.012 C 
HETATM   63  CG2 0Q4 A 125     -16.134  17.945  32.189  1.00 19.54     0.012 C 
ENDBRANCH  10  61
ENDBRANCH   8  10
ENDBRANCH   5   6
BRANCH   5  64
HETATM   64  CB  0Q4 A 125     -13.087  19.283  28.728  1.00 21.80     0.044 C 
BRANCH  64  65
HETATM   65  CG  0Q4 A 125     -12.728  19.531  27.223  1.00 26.69     0.023 C 
BRANCH  65  66
HETATM   66  CD  0Q4 A 125     -11.321  19.017  26.757  1.00 29.76     0.138 C 
BRANCH  66  67
HETATM   67  NE  0Q4 A 125     -10.260  19.119  27.768  1.00 32.26    -0.227 N 
HETATM   68  CZ  0Q4 A 125      -9.067  18.527  27.681  1.00 34.72     0.665 C 
HETATM   69  NH1 0Q4 A 125      -8.778  17.801  26.614  1.00 35.07    -0.235 N 
HETATM   70  NH2 0Q4 A 125      -8.209  18.555  28.712  1.00 35.86    -0.235 N 
HETATM   71 HH11 0Q4 A 125      -9.446  17.702  25.878  1.00 15.00     0.174 HD
HETATM   72 HH12 0Q4 A 125      -7.886  17.353  26.539  1.00 15.00     0.174 HD
HETATM   73 HH21 0Q4 A 125      -8.451  19.023  29.561  1.00 15.00     0.174 HD
HETATM   74 HH22 0Q4 A 125      -7.320  18.102  28.625  1.00 15.00     0.174 HD
HETATM   75  HE  0Q4 A 125     -10.432  19.658  28.572  1.00 15.00     0.177 HD
ENDBRANCH  66  67
ENDBRANCH  65  66
ENDBRANCH  64  65
ENDBRANCH   5  64
ENDBRANCH   1   5
TORSDOF 29
ENDMDL
MODEL 3
REMARK VINA RESULT:      -7.6      2.541      6.186
REMARK  29 active torsions:
REMARK  status: ('A' for Active; 'I' for Inactive)
REMARK    1  A    between atoms: N_1  and  CA_2 
REMARK    2  A    between atoms: CA_2  and  C_4 
REMARK    3  A    between atoms: CA_2  and  CB_6 
REMARK       I    between atoms: C_4  and  N1_19 
REMARK    4  A    between atoms: CB_6  and  CG_9 
REMARK    5  A    between atoms: CG_9  and  CD_12 
REMARK    6  A    between atoms: CD_12  and  NE_15 
REMARK       I    between atoms: NE_15  and  CZ_16 
REMARK       I    between atoms: CZ_16  and  NH1_17 
REMARK    7  A    between atoms: N1_19  and  CA1_20 
REMARK    8  A    between atoms: CA1_20  and  C1_22 
REMARK    9  A    between atoms: CA1_20  and  CB1_24 
REMARK       I    between atoms: C1_22  and  N2_34 
REMARK   10  A    between atoms: N2_34  and  CA2_35 
REMARK   11  A    between atoms: CA2_35  and  C2_37 
REMARK   12  A    between atoms: CA2_35  and  CB2_39 
REMARK   13  A    between atoms: CB2_39  and  CG3_42 
REMARK   14  A    between atoms: N3_52  and  CA3_53 
REMARK   15  A    between atoms: CA3_53  and  C3_55 
REMARK   16  A    between atoms: CA3_53  and  CB3_57 
REMARK       I    between atoms: C3_55  and  N4_71 
REMARK   17  A    between atoms: CB3_57  and  CG4_60 
REMARK   18  A    between atoms: N4_71  and  CA4_72 
REMARK   19  A    between atoms: CA4_72  and  C4_74 
REMARK   20  A    between atoms: CA4_72  and  CB4_76 
REMARK       I    between atoms: C4_74  and  N5_85 
REMARK   21  A    between atoms: CB4_76  and  CG5_79 
REMARK   22  A    between atoms: CG5_79  and  CD3_82 
REMARK   23  A    between atoms: N5_85  and  CA5_86 
REMARK   24  A    between atoms: CA5_86  and  C5_88 
REMARK       I    between atoms: C5_88  and  N6_94 
REMARK   25  A    between atoms: N6_94  and  CA6_95 
REMARK   26  A    between atoms: CA6_95  and  C6_97 
REMARK   27  A    between atoms: CA6_95  and  CB6_99 
REMARK       I    between atoms: C6_97  and  N7_112 
REMARK   28  A    between atoms: CB6_99  and  CG6_102 
REMARK   29  A    between atoms: CG6_102  and  CD4_105 
ROOT
HETATM    1  N   0Q4 A 125     -13.729  16.842  37.294  1.00 21.27    -0.067 N 
HETATM    2  H   0Q4 A 125     -13.276  17.362  38.058  1.00 15.00     0.275 HD
HETATM    3  H2  0Q4 A 125     -13.013  16.422  36.651  1.00 15.00     0.275 HD
HETATM    4  HN3 0Q4 A 125     -14.336  17.490  36.767  1.00 15.00     0.275 HD
ENDROOT
BRANCH   1   5
HETATM    5  CA  0Q4 A 125     -14.527  15.691  37.817  1.00 21.76     0.274 C 
BRANCH   5   6
HETATM    6  C   0Q4 A 125     -14.636  14.602  36.702  1.00 21.89     0.249 C 
HETATM    7  O   0Q4 A 125     -14.861  13.414  37.003  1.00 22.48    -0.271 OA
HETATM    8  N1  0Q4 A 125     -14.547  15.026  35.431  1.00 19.10    -0.346 N 
HETATM    9  H1  0Q4 A 125     -14.355  15.964  35.217  1.00 15.00     0.163 HD
BRANCH   8  10
HETATM   10  CA1 0Q4 A 125     -14.686  14.135  34.277  1.00 18.90     0.180 C 
BRANCH  10  11
HETATM   11  C1  0Q4 A 125     -13.356  13.989  33.491  1.00 17.14     0.241 C 
HETATM   12  O1  0Q4 A 125     -12.831  12.903  33.281  1.00 18.87    -0.271 OA
HETATM   13  N2  0Q4 A 125     -12.752  15.115  33.157  1.00 17.78    -0.350 N 
HETATM   14  HN2 0Q4 A 125     -13.148  15.977  33.415  1.00 15.00     0.163 HD
BRANCH  13  15
HETATM   15  CA2 0Q4 A 125     -11.538  15.106  32.364  1.00 17.96     0.123 C 
BRANCH  15  16
HETATM   16  C2  0Q4 A 125     -10.226  15.236  33.127  1.00 17.56     0.081 C 
HETATM   17  N3  0Q4 A 125      -9.468  16.264  32.793  1.00 16.64    -0.387 N 
HETATM   18  H3  0Q4 A 125      -9.785  16.858  32.086  1.00 15.00     0.159 HD
BRANCH  17  19
HETATM   19  CA3 0Q4 A 125      -8.191  16.577  33.446  1.00 16.89     0.177 C 
BRANCH  19  20
HETATM   20  C3  0Q4 A 125      -7.231  16.991  32.297  1.00 15.06     0.241 C 
HETATM   21  O2  0Q4 A 125      -6.157  17.541  32.554  1.00 12.51    -0.271 OA
HETATM   22  N4  0Q4 A 125      -7.576  16.621  31.063  1.00 14.54    -0.346 N 
HETATM   23  H4  0Q4 A 125      -8.444  16.190  30.906  1.00 15.00     0.163 HD
BRANCH  22  24
HETATM   24  CA4 0Q4 A 125      -6.735  16.870  29.889  1.00 15.81     0.177 C 
BRANCH  24  25
HETATM   25  C4  0Q4 A 125      -5.384  16.148  29.874  1.00 17.52     0.241 C 
HETATM   26  O3  0Q4 A 125      -5.299  14.919  29.937  1.00 17.50    -0.271 OA
HETATM   27  N5  0Q4 A 125      -4.321  16.930  29.951  1.00 19.61    -0.346 N 
HETATM   28  H5  0Q4 A 125      -4.423  17.906  30.013  1.00 15.00     0.163 HD
BRANCH  27  29
HETATM   29  CA5 0Q4 A 125      -2.985  16.373  29.939  1.00 21.82     0.172 C 
HETATM   30  CB5 0Q4 A 125      -2.166  17.113  28.899  1.00 22.24     0.042 C 
BRANCH  29  31
HETATM   31  C5  0Q4 A 125      -2.219  16.370  31.285  1.00 24.09     0.240 C 
HETATM   32  O4  0Q4 A 125      -2.771  16.082  32.349  1.00 20.88    -0.271 OA
HETATM   33  N6  0Q4 A 125      -0.949  16.753  31.202  1.00 27.66    -0.346 N 
HETATM   34  H6  0Q4 A 125      -0.604  17.000  30.327  1.00 15.00     0.163 HD
BRANCH  33  35
HETATM   35  CA6 0Q4 A 125      -0.066  16.904  32.350  1.00 31.09     0.176 C 
BRANCH  35  36
HETATM   36  C6  0Q4 A 125      -0.089  18.399  32.712  1.00 33.78     0.238 C 
HETATM   37  O5  0Q4 A 125      -1.035  19.139  32.312  1.00 34.60    -0.271 OA
HETATM   38  N7  0Q4 A 125       0.884  18.824  33.382  1.00 36.53    -0.368 N 
HETATM   39  H72 0Q4 A 125       1.646  18.228  33.705  1.00  0.00     0.159 HD
HETATM   40  H71 0Q4 A 125       0.869  19.816  33.621  1.00  0.00     0.159 HD
ENDBRANCH  35  36
BRANCH  35  41
HETATM   41  CB6 0Q4 A 125       1.367  16.481  31.937  1.00 32.55     0.035 C 
BRANCH  41  42
HETATM   42  CG6 0Q4 A 125       1.912  17.004  30.561  1.00 32.73     0.002 C 
BRANCH  42  43
HETATM   43  CD4 0Q4 A 125       3.364  16.503  30.194  1.00 31.59    -0.004 C 
HETATM   44  CE  0Q4 A 125       4.277  16.554  31.401  1.00 23.29     0.005 C 
ENDBRANCH  42  43
ENDBRANCH  41  42
ENDBRANCH  35  41
ENDBRANCH  33  35
ENDBRANCH  29  31
ENDBRANCH  27  29
ENDBRANCH  24  25
BRANCH  24  45
HETATM   45  CB4 0Q4 A 125      -6.510  18.401  29.737  1.00 17.07     0.045 C 
BRANCH  45  46
HETATM   46  CG5 0Q4 A 125      -6.957  19.045  28.440  1.00 18.50     0.116 C 
BRANCH  46  47
HETATM   47  CD3 0Q4 A 125      -6.476  18.288  27.192  1.00 26.68     0.172 C 
HETATM   48  OE1 0Q4 A 125      -5.260  18.049  27.071  1.00 29.71    -0.648 OA
HETATM   49  OE2 0Q4 A 125      -7.305  17.920  26.319  1.00 31.35    -0.648 OA
ENDBRANCH  46  47
ENDBRANCH  45  46
ENDBRANCH  24  45
ENDBRANCH  22  24
ENDBRANCH  19  20
BRANCH  19  50
HETATM   50  CB3 0Q4 A 125      -7.778  15.321  34.270  1.00 18.22     0.073 C 
BRANCH  50  51
HETATM   51  CG4 0Q4 A 125      -6.916  15.590  35.440  1.00 21.59    -0.056 A 
HETATM   52  CD1 0Q4 A 125      -7.463  16.032  36.637  1.00 22.99     0.007 A 
HETATM   53  CE1 0Q4 A 125      -6.651  16.248  37.774  1.00 24.00     0.001 A 
HETATM   54  CZ1 0Q4 A 125      -5.272  16.026  37.708  1.00 25.64     0.000 A 
HETATM   55  CE2 0Q4 A 125      -4.708  15.592  36.508  1.00 27.27     0.001 A 
HETATM   56  CD2 0Q4 A 125      -5.543  15.374  35.371  1.00 24.65     0.007 A 
ENDBRANCH  50  51
ENDBRANCH  19  50
ENDBRANCH  17  19
ENDBRANCH  15  16
BRANCH  15  57
HETATM   57  CB2 0Q4 A 125     -11.654  16.148  31.224  1.00 19.32     0.034 C 
BRANCH  57  58
HETATM   58  CG3 0Q4 A 125     -11.678  15.556  29.786  1.00 21.12    -0.020 C 
HETATM   59  CD1 0Q4 A 125     -10.282  15.299  29.221  1.00 21.22     0.009 C 
HETATM   60  CD2 0Q4 A 125     -12.485  14.271  29.767  1.00 17.47     0.009 C 
ENDBRANCH  57  58
ENDBRANCH  15  57
ENDBRANCH  13  15
ENDBRANCH  10  11
BRANCH  10  61
HETATM   61  CB1 0Q4 A 125     -15.940  14.593  33.369  1.00 19.28     0.009 C 
HETATM   62  CG1 0Q4 A 125     -16.241  16.085  33.526  1.00 20.08     0.012 C 
HETATM   63  CG2 0Q4 A 125     -15.658  14.326  31.877  1.00 19.54     0.012 C 
ENDBRANCH  10  61
ENDBRANCH   8  10
ENDBRANCH   5   6
BRANCH   5  64
HETATM   64  CB  0Q4 A 125     -15.894  16.202  38.289  1.00 21.80     0.044 C 
BRANCH  64  65
HETATM   65  CG  0Q4 A 125     -16.060  16.470  39.824  1.00 26.69     0.023 C 
BRANCH  65  66
HETATM   66  CD  0Q4 A 125     -15.815  17.947  40.296  1.00 29.76     0.138 C 
BRANCH  66  67
HETATM   67  NE  0Q4 A 125     -14.791  18.676  39.536  1.00 32.26    -0.227 N 
HETATM   68  CZ  0Q4 A 125     -13.693  19.219  40.068  1.00 34.72     0.665 C 
HETATM   69  NH1 0Q4 A 125     -13.473  19.098  41.367  1.00 35.07    -0.235 N 
HETATM   70  NH2 0Q4 A 125     -12.880  19.988  39.329  1.00 35.86    -0.235 N 
HETATM   71 HH11 0Q4 A 125     -14.120  18.600  41.942  1.00 15.00     0.174 HD
HETATM   72 HH12 0Q4 A 125     -12.653  19.502  41.776  1.00 15.00     0.174 HD
HETATM   73 HH21 0Q4 A 125     -13.083  20.163  38.367  1.00 15.00     0.174 HD
HETATM   74 HH22 0Q4 A 125     -12.063  20.387  39.750  1.00 15.00     0.174 HD
HETATM   75  HE  0Q4 A 125     -14.912  18.778  38.566  1.00 15.00     0.177 HD
ENDBRANCH  66  67
ENDBRANCH  65  66
ENDBRANCH  64  65
ENDBRANCH   5  64
ENDBRANCH   1   5
TORSDOF 29
ENDMDL
MODEL 4
REMARK VINA RESULT:      -7.5      3.090     12.424
REMARK  29 active torsions:
REMARK  status: ('A' for Active; 'I' for Inactive)
REMARK    1  A    between atoms: N_1  and  CA_2 
REMARK    2  A    between atoms: CA_2  and  C_4 
REMARK    3  A    between atoms: CA_2  and  CB_6 
REMARK       I    between atoms: C_4  and  N1_19 
REMARK    4  A    between atoms: CB_6  and  CG_9 
REMARK    5  A    between atoms: CG_9  and  CD_12 
REMARK    6  A    between atoms: CD_12  and  NE_15 
REMARK       I    between atoms: NE_15  and  CZ_16 
REMARK       I    between atoms: CZ_16  and  NH1_17 
REMARK    7  A    between atoms: N1_19  and  CA1_20 
REMARK    8  A    between atoms: CA1_20  and  C1_22 
REMARK    9  A    between atoms: CA1_20  and  CB1_24 
REMARK       I    between atoms: C1_22  and  N2_34 
REMARK   10  A    between atoms: N2_34  and  CA2_35 
REMARK   11  A    between atoms: CA2_35  and  C2_37 
REMARK   12  A    between atoms: CA2_35  and  CB2_39 
REMARK   13  A    between atoms: CB2_39  and  CG3_42 
REMARK   14  A    between atoms: N3_52  and  CA3_53 
REMARK   15  A    between atoms: CA3_53  and  C3_55 
REMARK   16  A    between atoms: CA3_53  and  CB3_57 
REMARK       I    between atoms: C3_55  and  N4_71 
REMARK   17  A    between atoms: CB3_57  and  CG4_60 
REMARK   18  A    between atoms: N4_71  and  CA4_72 
REMARK   19  A    between atoms: CA4_72  and  C4_74 
REMARK   20  A    between atoms: CA4_72  and  CB4_76 
REMARK       I    between atoms: C4_74  and  N5_85 
REMARK   21  A    between atoms: CB4_76  and  CG5_79 
REMARK   22  A    between atoms: CG5_79  and  CD3_82 
REMARK   23  A    between atoms: N5_85  and  CA5_86 
REMARK   24  A    between atoms: CA5_86  and  C5_88 
REMARK       I    between atoms: C5_88  and  N6_94 
REMARK   25  A    between atoms: N6_94  and  CA6_95 
REMARK   26  A    between atoms: CA6_95  and  C6_97 
REMARK   27  A    between atoms: CA6_95  and  CB6_99 
REMARK       I    between atoms: C6_97  and  N7_112 
REMARK   28  A    between atoms: CB6_99  and  CG6_102 
REMARK   29  A    between atoms: CG6_102  and  CD4_105 
ROOT
HETATM    1  N   0Q4 A 125       1.609  18.818  33.393  1.00 21.27    -0.067 N 
HETATM    2  H   0Q4 A 125       1.398  19.708  32.919  1.00 15.00     0.275 HD
HETATM    3  H2  0Q4 A 125       1.166  18.788  34.345  1.00 15.00     0.275 HD
HETATM    4  HN3 0Q4 A 125       2.633  18.724  33.480  1.00 15.00     0.275 HD
ENDROOT
BRANCH   1   5
HETATM    5  CA  0Q4 A 125       1.040  17.655  32.646  1.00 21.76     0.274 C 
BRANCH   5   6
HETATM    6  C   0Q4 A 125      -0.459  17.948  32.316  1.00 21.89     0.249 C 
HETATM    7  O   0Q4 A 125      -0.952  19.063  32.569  1.00 22.48    -0.271 OA
HETATM    8  N1  0Q4 A 125      -1.144  16.975  31.694  1.00 19.10    -0.346 N 
HETATM    9  H1  0Q4 A 125      -0.740  16.098  31.517  1.00 15.00     0.163 HD
BRANCH   8  10
HETATM   10  CA1 0Q4 A 125      -2.537  17.120  31.269  1.00 18.90     0.180 C 
BRANCH  10  11
HETATM   11  C1  0Q4 A 125      -3.502  16.272  32.139  1.00 17.14     0.241 C 
HETATM   12  O1  0Q4 A 125      -3.398  15.057  32.246  1.00 18.87    -0.271 OA
HETATM   13  N2  0Q4 A 125      -4.524  16.919  32.670  1.00 17.78    -0.350 N 
HETATM   14  HN2 0Q4 A 125      -4.638  17.880  32.497  1.00 15.00     0.163 HD
BRANCH  13  15
HETATM   15  CA2 0Q4 A 125      -5.456  16.247  33.556  1.00 17.96     0.123 C 
BRANCH  15  16
HETATM   16  C2  0Q4 A 125      -6.893  16.127  33.066  1.00 17.56     0.081 C 
HETATM   17  N3  0Q4 A 125      -7.050  15.545  31.890  1.00 16.64    -0.387 N 
HETATM   18  H3  0Q4 A 125      -6.251  15.244  31.416  1.00 15.00     0.159 HD
BRANCH  17  19
HETATM   19  CA3 0Q4 A 125      -8.360  15.303  31.274  1.00 16.89     0.177 C 
BRANCH  19  20
HETATM   20  C3  0Q4 A 125      -8.275  15.940  29.859  1.00 15.06     0.241 C 
HETATM   21  O2  0Q4 A 125      -8.579  15.281  28.862  1.00 12.51    -0.271 OA
HETATM   22  N4  0Q4 A 125      -7.974  17.238  29.803  1.00 14.54    -0.346 N 
HETATM   23  H4  0Q4 A 125      -7.733  17.721  30.623  1.00 15.00     0.163 HD
BRANCH  22  24
HETATM   24  CA4 0Q4 A 125      -7.934  17.996  28.549  1.00 15.81     0.177 C 
BRANCH  24  25
HETATM   25  C4  0Q4 A 125      -9.205  17.939  27.697  1.00 17.52     0.241 C 
HETATM   26  O3  0Q4 A 125      -9.183  18.119  26.477  1.00 17.50    -0.271 OA
HETATM   27  N5  0Q4 A 125     -10.338  17.844  28.372  1.00 19.61    -0.346 N 
HETATM   28  H5  0Q4 A 125     -10.332  17.816  29.355  1.00 15.00     0.163 HD
BRANCH  27  29
HETATM   29  CA5 0Q4 A 125     -11.610  17.775  27.685  1.00 21.82     0.172 C 
HETATM   30  CB5 0Q4 A 125     -11.878  16.328  27.317  1.00 22.24     0.042 C 
BRANCH  29  31
HETATM   31  C5  0Q4 A 125     -12.839  18.349  28.434  1.00 24.09     0.240 C 
HETATM   32  O4  0Q4 A 125     -13.914  18.548  27.865  1.00 20.88    -0.271 OA
HETATM   33  N6  0Q4 A 125     -12.619  18.654  29.708  1.00 27.66    -0.346 N 
HETATM   34  H6  0Q4 A 125     -11.729  18.500  30.068  1.00 15.00     0.163 HD
BRANCH  33  35
HETATM   35  CA6 0Q4 A 125     -13.606  19.282  30.578  1.00 31.09     0.176 C 
BRANCH  35  36
HETATM   36  C6  0Q4 A 125     -13.422  20.799  30.405  1.00 33.78     0.238 C 
HETATM   37  O5  0Q4 A 125     -14.133  21.439  29.576  1.00 34.60    -0.271 OA
HETATM   38  N7  0Q4 A 125     -12.521  21.333  31.099  1.00 36.53    -0.368 N 
HETATM   39  H72 0Q4 A 125     -11.949  20.818  31.767  1.00  0.00     0.159 HD
HETATM   40  H71 0Q4 A 125     -12.400  22.339  30.984  1.00  0.00     0.159 HD
ENDBRANCH  35  36
BRANCH  35  41
HETATM   41  CB6 0Q4 A 125     -13.308  18.875  32.044  1.00 32.55     0.035 C 
BRANCH  41  42
HETATM   42  CG6 0Q4 A 125     -14.355  17.960  32.772  1.00 32.73     0.002 C 
BRANCH  42  43
HETATM   43  CD4 0Q4 A 125     -13.761  17.087  33.947  1.00 31.59    -0.004 C 
HETATM   44  CE  0Q4 A 125     -14.780  16.082  34.445  1.00 23.29     0.005 C 
ENDBRANCH  42  43
ENDBRANCH  41  42
ENDBRANCH  35  41
ENDBRANCH  33  35
ENDBRANCH  29  31
ENDBRANCH  27  29
ENDBRANCH  24  25
BRANCH  24  45
HETATM   45  CB4 0Q4 A 125      -6.718  17.521  27.704  1.00 17.07     0.045 C 
BRANCH  45  46
HETATM   46  CG5 0Q4 A 125      -5.687  18.564  27.319  1.00 18.50     0.116 C 
BRANCH  46  47
HETATM   47  CD3 0Q4 A 125      -5.633  18.831  25.807  1.00 26.68     0.172 C 
HETATM   48  OE1 0Q4 A 125      -5.990  17.927  25.029  1.00 29.71    -0.648 OA
HETATM   49  OE2 0Q4 A 125      -5.238  19.946  25.376  1.00 31.35    -0.648 OA
ENDBRANCH  46  47
ENDBRANCH  45  46
ENDBRANCH  24  45
ENDBRANCH  22  24
ENDBRANCH  19  20
BRANCH  19  50
HETATM   50  CB3 0Q4 A 125      -9.435  15.896  32.233  1.00 18.22     0.073 C 
BRANCH  50  51
HETATM   51  CG4 0Q4 A 125     -10.530  14.973  32.600  1.00 21.59    -0.056 A 
HETATM   52  CD1 0Q4 A 125     -10.504  14.288  33.807  1.00 22.99     0.007 A 
HETATM   53  CE1 0Q4 A 125     -11.568  13.438  34.187  1.00 24.00     0.001 A 
HETATM   54  CZ1 0Q4 A 125     -12.670  13.268  33.341  1.00 25.64     0.000 A 
HETATM   55  CE2 0Q4 A 125     -12.704  13.944  32.122  1.00 27.27     0.001 A 
HETATM   56  CD2 0Q4 A 125     -11.622  14.801  31.756  1.00 24.65     0.007 A 
ENDBRANCH  50  51
ENDBRANCH  19  50
ENDBRANCH  17  19
ENDBRANCH  15  16
BRANCH  15  57
HETATM   57  CB2 0Q4 A 125      -5.372  16.873  34.970  1.00 19.32     0.034 C 
BRANCH  57  58
HETATM   58  CG3 0Q4 A 125      -5.686  15.904  36.144  1.00 21.12    -0.020 C 
HETATM   59  CD1 0Q4 A 125      -4.507  15.720  37.100  1.00 21.22     0.009 C 
HETATM   60  CD2 0Q4 A 125      -6.898  16.395  36.913  1.00 17.47     0.009 C 
ENDBRANCH  57  58
ENDBRANCH  15  57
ENDBRANCH  13  15
ENDBRANCH  10  11
BRANCH  10  61
HETATM   61  CB1 0Q4 A 125      -2.667  16.846  29.683  1.00 19.28     0.009 C 
HETATM   62  CG1 0Q4 A 125      -1.827  17.829  28.865  1.00 20.08     0.012 C 
HETATM   63  CG2 0Q4 A 125      -2.192  15.420  29.336  1.00 19.54     0.012 C 
ENDBRANCH  10  61
ENDBRANCH   8  10
ENDBRANCH   5   6
BRANCH   5  64
HETATM   64  CB  0Q4 A 125       1.230  16.383  33.482  1.00 21.80     0.044 C 
BRANCH  64  65
HETATM   65  CG  0Q4 A 125       1.717  16.572  34.959  1.00 26.69     0.023 C 
BRANCH  65  66
HETATM   66  CD  0Q4 A 125       3.220  16.215  35.239  1.00 29.76     0.138 C 
BRANCH  66  67
HETATM   67  NE  0Q4 A 125       3.948  15.665  34.088  1.00 32.26    -0.227 N 
HETATM   68  CZ  0Q4 A 125       4.926  16.298  33.435  1.00 34.72     0.665 C 
HETATM   69  NH1 0Q4 A 125       5.302  17.501  33.835  1.00 35.07    -0.235 N 
HETATM   70  NH2 0Q4 A 125       5.443  15.785  32.308  1.00 35.86    -0.235 N 
HETATM   71 HH11 0Q4 A 125       4.861  17.929  34.622  1.00 15.00     0.174 HD
HETATM   72 HH12 0Q4 A 125       6.034  17.984  33.351  1.00 15.00     0.174 HD
HETATM   73 HH21 0Q4 A 125       5.105  14.919  31.943  1.00 15.00     0.174 HD
HETATM   74 HH22 0Q4 A 125       6.174  16.279  31.833  1.00 15.00     0.174 HD
HETATM   75  HE  0Q4 A 125       3.707  14.769  33.767  1.00 15.00     0.177 HD
ENDBRANCH  66  67
ENDBRANCH  65  66
ENDBRANCH  64  65
ENDBRANCH   5  64
ENDBRANCH   1   5
TORSDOF 29
ENDMDL
MODEL 5
REMARK VINA RESULT:      -7.4      2.613      7.052
REMARK  29 active torsions:
REMARK  status: ('A' for Active; 'I' for Inactive)
REMARK    1  A    between atoms: N_1  and  CA_2 
REMARK    2  A    between atoms: CA_2  and  C_4 
REMARK    3  A    between atoms: CA_2  and  CB_6 
REMARK       I    between atoms: C_4  and  N1_19 
REMARK    4  A    between atoms: CB_6  and  CG_9 
REMARK    5  A    between atoms: CG_9  and  CD_12 
REMARK    6  A    between atoms: CD_12  and  NE_15 
REMARK       I    between atoms: NE_15  and  CZ_16 
REMARK       I    between atoms: CZ_16  and  NH1_17 
REMARK    7  A    between atoms: N1_19  and  CA1_20 
REMARK    8  A    between atoms: CA1_20  and  C1_22 
REMARK    9  A    between atoms: CA1_20  and  CB1_24 
REMARK       I    between atoms: C1_22  and  N2_34 
REMARK   10  A    between atoms: N2_34  and  CA2_35 
REMARK   11  A    between atoms: CA2_35  and  C2_37 
REMARK   12  A    between atoms: CA2_35  and  CB2_39 
REMARK   13  A    between atoms: CB2_39  and  CG3_42 
REMARK   14  A    between atoms: N3_52  and  CA3_53 
REMARK   15  A    between atoms: CA3_53  and  C3_55 
REMARK   16  A    between atoms: CA3_53  and  CB3_57 
REMARK       I    between atoms: C3_55  and  N4_71 
REMARK   17  A    between atoms: CB3_57  and  CG4_60 
REMARK   18  A    between atoms: N4_71  and  CA4_72 
REMARK   19  A    between atoms: CA4_72  and  C4_74 
REMARK   20  A    between atoms: CA4_72  and  CB4_76 
REMARK       I    between atoms: C4_74  and  N5_85 
REMARK   21  A    between atoms: CB4_76  and  CG5_79 
REMARK   22  A    between atoms: CG5_79  and  CD3_82 
REMARK   23  A    between atoms: N5_85  and  CA5_86 
REMARK   24  A    between atoms: CA5_86  and  C5_88 
REMARK       I    between atoms: C5_88  and  N6_94 
REMARK   25  A    between atoms: N6_94  and  CA6_95 
REMARK   26  A    between atoms: CA6_95  and  C6_97 
REMARK   27  A    between atoms: CA6_95  and  CB6_99 
REMARK       I    between atoms: C6_97  and  N7_112 
REMARK   28  A    between atoms: CB6_99  and  CG6_102 
REMARK   29  A    between atoms: CG6_102  and  CD4_105 
ROOT
HETATM    1  N   0Q4 A 125     -12.535  12.798  28.189  1.00 21.27    -0.067 N 
HETATM    2  H   0Q4 A 125     -13.462  13.125  28.496  1.00 15.00     0.275 HD
HETATM    3  H2  0Q4 A 125     -12.610  12.238  27.303  1.00 15.00     0.275 HD
HETATM    4  HN3 0Q4 A 125     -12.124  12.218  28.937  1.00 15.00     0.275 HD
ENDROOT
BRANCH   1   5
HETATM    5  CA  0Q4 A 125     -11.633  13.946  27.865  1.00 21.76     0.274 C 
BRANCH   5   6
HETATM    6  C   0Q4 A 125     -11.979  15.144  28.805  1.00 21.89     0.249 C 
HETATM    7  O   0Q4 A 125     -11.424  16.248  28.647  1.00 22.48    -0.271 OA
HETATM    8  N1  0Q4 A 125     -12.938  14.938  29.722  1.00 19.10    -0.346 N 
HETATM    9  H1  0Q4 A 125     -13.352  14.056  29.839  1.00 15.00     0.163 HD
BRANCH   8  10
HETATM   10  CA1 0Q4 A 125     -13.412  15.979  30.636  1.00 18.90     0.180 C 
BRANCH  10  11
HETATM   11  C1  0Q4 A 125     -12.614  15.993  31.966  1.00 17.14     0.241 C 
HETATM   12  O1  0Q4 A 125     -12.342  17.029  32.560  1.00 18.87    -0.271 OA
HETATM   13  N2  0Q4 A 125     -12.137  14.830  32.369  1.00 17.78    -0.350 N 
HETATM   14  HN2 0Q4 A 125     -12.293  14.023  31.829  1.00 15.00     0.163 HD
BRANCH  13  15
HETATM   15  CA2 0Q4 A 125     -11.432  14.706  33.631  1.00 17.96     0.123 C 
BRANCH  15  16
HETATM   16  C2  0Q4 A 125      -9.912  14.777  33.570  1.00 17.56     0.081 C 
HETATM   17  N3  0Q4 A 125      -9.409  15.909  33.111  1.00 16.64    -0.387 N 
HETATM   18  H3  0Q4 A 125     -10.031  16.610  32.836  1.00 15.00     0.159 HD
BRANCH  17  19
HETATM   19  CA3 0Q4 A 125      -7.970  16.178  33.017  1.00 16.89     0.177 C 
BRANCH  19  20
HETATM   20  C3  0Q4 A 125      -7.662  16.256  31.496  1.00 15.06     0.241 C 
HETATM   21  O2  0Q4 A 125      -8.522  15.936  30.672  1.00 12.51    -0.271 OA
HETATM   22  N4  0Q4 A 125      -6.489  16.785  31.147  1.00 14.54    -0.346 N 
HETATM   23  H4  0Q4 A 125      -5.832  17.019  31.839  1.00 15.00     0.163 HD
BRANCH  22  24
HETATM   24  CA4 0Q4 A 125      -6.090  16.996  29.753  1.00 15.81     0.177 C 
BRANCH  24  25
HETATM   25  C4  0Q4 A 125      -4.615  16.730  29.435  1.00 17.52     0.241 C 
HETATM   26  O3  0Q4 A 125      -4.269  16.011  28.495  1.00 17.50    -0.271 OA
HETATM   27  N5  0Q4 A 125      -3.751  17.187  30.326  1.00 19.61    -0.346 N 
HETATM   28  H5  0Q4 A 125      -4.065  17.660  31.128  1.00 15.00     0.163 HD
BRANCH  27  29
HETATM   29  CA5 0Q4 A 125      -2.327  17.006  30.140  1.00 21.82     0.172 C 
HETATM   30  CB5 0Q4 A 125      -1.734  18.322  29.675  1.00 22.24     0.042 C 
BRANCH  29  31
HETATM   31  C5  0Q4 A 125      -1.525  16.487  31.360  1.00 24.09     0.240 C 
HETATM   32  O4  0Q4 A 125      -2.055  15.826  32.256  1.00 20.88    -0.271 OA
HETATM   33  N6  0Q4 A 125      -0.250  16.859  31.384  1.00 27.66    -0.346 N 
HETATM   34  H6  0Q4 A 125       0.078  17.414  30.655  1.00 15.00     0.163 HD
BRANCH  33  35
HETATM   35  CA6 0Q4 A 125       0.668  16.556  32.475  1.00 31.09     0.176 C 
BRANCH  35  36
HETATM   36  C6  0Q4 A 125       0.532  17.713  33.479  1.00 33.78     0.238 C 
HETATM   37  O5  0Q4 A 125       0.314  17.475  34.704  1.00 34.60    -0.271 OA
HETATM   38  N7  0Q4 A 125       0.614  18.873  33.006  1.00 36.53    -0.368 N 
HETATM   39  H72 0Q4 A 125       0.790  19.066  32.020  1.00  0.00     0.159 HD
HETATM   40  H71 0Q4 A 125       0.524  19.640  33.673  1.00  0.00     0.159 HD
ENDBRANCH  35  36
BRANCH  35  41
HETATM   41  CB6 0Q4 A 125       2.112  16.509  31.913  1.00 32.55     0.035 C 
BRANCH  41  42
HETATM   42  CG6 0Q4 A 125       2.321  16.904  30.409  1.00 32.73     0.002 C 
BRANCH  42  43
HETATM   43  CD4 0Q4 A 125       3.817  16.822  29.908  1.00 31.59    -0.004 C 
HETATM   44  CE  0Q4 A 125       4.027  15.614  29.019  1.00 23.29     0.005 C 
ENDBRANCH  42  43
ENDBRANCH  41  42
ENDBRANCH  35  41
ENDBRANCH  33  35
ENDBRANCH  29  31
ENDBRANCH  27  29
ENDBRANCH  24  25
BRANCH  24  45
HETATM   45  CB4 0Q4 A 125      -6.461  18.445  29.329  1.00 17.07     0.045 C 
BRANCH  45  46
HETATM   46  CG5 0Q4 A 125      -5.592  19.107  28.277  1.00 18.50     0.116 C 
BRANCH  46  47
HETATM   47  CD3 0Q4 A 125      -6.098  18.879  26.845  1.00 26.68     0.172 C 
HETATM   48  OE1 0Q4 A 125      -5.476  19.403  25.902  1.00 29.71    -0.648 OA
HETATM   49  OE2 0Q4 A 125      -7.119  18.171  26.641  1.00 31.35    -0.648 OA
ENDBRANCH  46  47
ENDBRANCH  45  46
ENDBRANCH  24  45
ENDBRANCH  22  24
ENDBRANCH  19  20
BRANCH  19  50
HETATM   50  CB3 0Q4 A 125      -7.240  15.053  33.810  1.00 18.22     0.073 C 
BRANCH  50  51
HETATM   51  CG4 0Q4 A 125      -6.660  15.468  35.105  1.00 21.59    -0.056 A 
HETATM   52  CD1 0Q4 A 125      -7.479  15.874  36.150  1.00 22.99     0.007 A 
HETATM   53  CE1 0Q4 A 125      -6.935  16.229  37.406  1.00 24.00     0.001 A 
HETATM   54  CZ1 0Q4 A 125      -5.552  16.184  37.614  1.00 25.64     0.000 A 
HETATM   55  CE2 0Q4 A 125      -4.719  15.787  36.569  1.00 27.27     0.001 A 
HETATM   56  CD2 0Q4 A 125      -5.285  15.428  35.308  1.00 24.65     0.007 A 
ENDBRANCH  50  51
ENDBRANCH  19  50
ENDBRANCH  17  19
ENDBRANCH  15  16
BRANCH  15  57
HETATM   57  CB2 0Q4 A 125     -11.928  13.447  34.383  1.00 19.32     0.034 C 
BRANCH  57  58
HETATM   58  CG3 0Q4 A 125     -13.074  13.693  35.405  1.00 21.12    -0.020 C 
HETATM   59  CD1 0Q4 A 125     -12.894  12.910  36.705  1.00 21.22     0.009 C 
HETATM   60  CD2 0Q4 A 125     -13.188  15.175  35.709  1.00 17.47     0.009 C 
ENDBRANCH  57  58
ENDBRANCH  15  57
ENDBRANCH  13  15
ENDBRANCH  10  11
BRANCH  10  61
HETATM   61  CB1 0Q4 A 125     -15.011  15.864  30.829  1.00 19.28     0.009 C 
HETATM   62  CG1 0Q4 A 125     -15.379  15.304  32.204  1.00 20.08     0.012 C 
HETATM   63  CG2 0Q4 A 125     -15.677  17.248  30.692  1.00 19.54     0.012 C 
ENDBRANCH  10  61
ENDBRANCH   8  10
ENDBRANCH   5   6
BRANCH   5  64
HETATM   64  CB  0Q4 A 125     -11.777  14.291  26.378  1.00 21.80     0.044 C 
BRANCH  64  65
HETATM   65  CG  0Q4 A 125     -10.600  13.868  25.434  1.00 26.69     0.023 C 
BRANCH  65  66
HETATM   66  CD  0Q4 A 125      -9.615  15.012  25.005  1.00 29.76     0.138 C 
BRANCH  66  67
HETATM   67  NE  0Q4 A 125      -8.211  14.789  25.376  1.00 32.26    -0.227 N 
HETATM   68  CZ  0Q4 A 125      -7.689  15.061  26.574  1.00 34.72     0.665 C 
HETATM   69  NH1 0Q4 A 125      -8.466  15.553  27.525  1.00 35.07    -0.235 N 
HETATM   70  NH2 0Q4 A 125      -6.369  14.960  26.787  1.00 35.86    -0.235 N 
HETATM   71 HH11 0Q4 A 125      -9.436  15.714  27.348  1.00 15.00     0.174 HD
HETATM   72 HH12 0Q4 A 125      -8.084  15.761  28.427  1.00 15.00     0.174 HD
HETATM   73 HH21 0Q4 A 125      -5.756  14.677  26.051  1.00 15.00     0.174 HD
HETATM   74 HH22 0Q4 A 125      -5.999  15.172  27.694  1.00 15.00     0.174 HD
HETATM   75  HE  0Q4 A 125      -7.603  14.414  24.701  1.00 15.00     0.177 HD
ENDBRANCH  66  67
ENDBRANCH  65  66
ENDBRANCH  64  65
ENDBRANCH   5  64
ENDBRANCH   1   5
TORSDOF 29
ENDMDL
MODEL 6
REMARK VINA RESULT:      -7.4      1.734      2.176
REMARK  29 active torsions:
REMARK  status: ('A' for Active; 'I' for Inactive)
REMARK    1  A    between atoms: N_1  and  CA_2 
REMARK    2  A    between atoms: CA_2  and  C_4 
REMARK    3  A    between atoms: CA_2  and  CB_6 
REMARK       I    between atoms: C_4  and  N1_19 
REMARK    4  A    between atoms: CB_6  and  CG_9 
REMARK    5  A    between atoms: CG_9  and  CD_12 
REMARK    6  A    between atoms: CD_12  and  NE_15 
REMARK       I    between atoms: NE_15  and  CZ_16 
REMARK       I    between atoms: CZ_16  and  NH1_17 
REMARK    7  A    between atoms: N1_19  and  CA1_20 
REMARK    8  A    between atoms: CA1_20  and  C1_22 
REMARK    9  A    between atoms: CA1_20  and  CB1_24 
REMARK       I    between atoms: C1_22  and  N2_34 
REMARK   10  A    between atoms: N2_34  and  CA2_35 
REMARK   11  A    between atoms: CA2_35  and  C2_37 
REMARK   12  A    between atoms: CA2_35  and  CB2_39 
REMARK   13  A    between atoms: CB2_39  and  CG3_42 
REMARK   14  A    between atoms: N3_52  and  CA3_53 
REMARK   15  A    between atoms: CA3_53  and  C3_55 
REMARK   16  A    between atoms: CA3_53  and  CB3_57 
REMARK       I    between atoms: C3_55  and  N4_71 
REMARK   17  A    between atoms: CB3_57  and  CG4_60 
REMARK   18  A    between atoms: N4_71  and  CA4_72 
REMARK   19  A    between atoms: CA4_72  and  C4_74 
REMARK   20  A    between atoms: CA4_72  and  CB4_76 
REMARK       I    between atoms: C4_74  and  N5_85 
REMARK   21  A    between atoms: CB4_76  and  CG5_79 
REMARK   22  A    between atoms: CG5_79  and  CD3_82 
REMARK   23  A    between atoms: N5_85  and  CA5_86 
REMARK   24  A    between atoms: CA5_86  and  C5_88 
REMARK       I    between atoms: C5_88  and  N6_94 
REMARK   25  A    between atoms: N6_94  and  CA6_95 
REMARK   26  A    between atoms: CA6_95  and  C6_97 
REMARK   27  A    between atoms: CA6_95  and  CB6_99 
REMARK       I    between atoms: C6_97  and  N7_112 
REMARK   28  A    between atoms: CB6_99  and  CG6_102 
REMARK   29  A    between atoms: CG6_102  and  CD4_105 
ROOT
HETATM    1  N   0Q4 A 125     -12.962  17.733  32.327  1.00 21.27    -0.067 N 
HETATM    2  H   0Q4 A 125     -12.970  17.957  33.332  1.00 15.00     0.275 HD
HETATM    3  H2  0Q4 A 125     -12.246  18.312  31.820  1.00 15.00     0.275 HD
HETATM    4  HN3 0Q4 A 125     -13.900  17.918  31.938  1.00 15.00     0.275 HD
ENDROOT
BRANCH   1   5
HETATM    5  CA  0Q4 A 125     -12.571  16.310  32.089  1.00 21.76     0.274 C 
BRANCH   5   6
HETATM    6  C   0Q4 A 125     -12.435  16.072  30.551  1.00 21.89     0.249 C 
HETATM    7  O   0Q4 A 125     -12.735  14.969  30.056  1.00 22.48    -0.271 OA
HETATM    8  N1  0Q4 A 125     -12.053  17.123  29.807  1.00 19.10    -0.346 N 
HETATM    9  H1  0Q4 A 125     -11.807  17.978  30.219  1.00 15.00     0.163 HD
BRANCH   8  10
HETATM   10  CA1 0Q4 A 125     -11.934  17.072  28.348  1.00 18.90     0.180 C 
BRANCH  10  11
HETATM   11  C1  0Q4 A 125     -10.514  16.647  27.894  1.00 17.14     0.241 C 
HETATM   12  O1  0Q4 A 125     -10.318  15.957  26.902  1.00 18.87    -0.271 OA
HETATM   13  N2  0Q4 A 125      -9.523  16.974  28.705  1.00 17.78    -0.350 N 
HETATM   14  HN2 0Q4 A 125      -9.714  17.452  29.542  1.00 15.00     0.163 HD
BRANCH  13  15
HETATM   15  CA2 0Q4 A 125      -8.144  16.689  28.354  1.00 17.96     0.123 C 
BRANCH  15  16
HETATM   16  C2  0Q4 A 125      -7.384  15.758  29.290  1.00 17.56     0.081 C 
HETATM   17  N3  0Q4 A 125      -6.203  16.189  29.693  1.00 16.64    -0.387 N 
HETATM   18  H3  0Q4 A 125      -5.894  17.055  29.365  1.00 15.00     0.159 HD
BRANCH  17  19
HETATM   19  CA3 0Q4 A 125      -5.345  15.451  30.626  1.00 16.89     0.177 C 
BRANCH  19  20
HETATM   20  C3  0Q4 A 125      -5.104  16.418  31.819  1.00 15.06     0.241 C 
HETATM   21  O2  0Q4 A 125      -5.705  17.494  31.876  1.00 12.51    -0.271 OA
HETATM   22  N4  0Q4 A 125      -4.322  15.974  32.804  1.00 14.54    -0.346 N 
HETATM   23  H4  0Q4 A 125      -3.860  15.112  32.711  1.00 15.00     0.163 HD
BRANCH  22  24
HETATM   24  CA4 0Q4 A 125      -4.066  16.738  34.027  1.00 15.81     0.177 C 
BRANCH  24  25
HETATM   25  C4  0Q4 A 125      -2.643  17.285  34.184  1.00 17.52     0.241 C 
HETATM   26  O3  0Q4 A 125      -2.376  18.474  33.998  1.00 17.50    -0.271 OA
HETATM   27  N5  0Q4 A 125      -1.703  16.374  34.372  1.00 19.61    -0.346 N 
HETATM   28  H5  0Q4 A 125      -1.933  15.419  34.404  1.00 15.00     0.163 HD
BRANCH  27  29
HETATM   29  CA5 0Q4 A 125      -0.318  16.760  34.541  1.00 21.82     0.172 C 
HETATM   30  CB5 0Q4 A 125       0.005  16.747  36.023  1.00 22.24     0.042 C 
BRANCH  29  31
HETATM   31  C5  0Q4 A 125       0.738  15.919  33.781  1.00 24.09     0.240 C 
HETATM   32  O4  0Q4 A 125       0.566  14.723  33.536  1.00 20.88    -0.271 OA
HETATM   33  N6  0Q4 A 125       1.851  16.576  33.471  1.00 27.66    -0.346 N 
HETATM   34  H6  0Q4 A 125       1.919  17.510  33.736  1.00 15.00     0.163 HD
BRANCH  33  35
HETATM   35  CA6 0Q4 A 125       3.007  15.964  32.830  1.00 31.09     0.176 C 
BRANCH  35  36
HETATM   36  C6  0Q4 A 125       4.211  16.281  33.733  1.00 33.78     0.238 C 
HETATM   37  O5  0Q4 A 125       4.928  17.300  33.509  1.00 34.60    -0.271 OA
HETATM   38  N7  0Q4 A 125       4.445  15.463  34.657  1.00 36.53    -0.368 N 
HETATM   39  H72 0Q4 A 125       3.867  14.643  34.839  1.00  0.00     0.159 HD
HETATM   40  H71 0Q4 A 125       5.244  15.674  35.256  1.00  0.00     0.159 HD
ENDBRANCH  35  36
BRANCH  35  41
HETATM   41  CB6 0Q4 A 125       3.206  16.611  31.435  1.00 32.55     0.035 C 
BRANCH  41  42
HETATM   42  CG6 0Q4 A 125       4.302  15.994  30.497  1.00 32.73     0.002 C 
BRANCH  42  43
HETATM   43  CD4 0Q4 A 125       3.891  15.907  28.974  1.00 31.59    -0.004 C 
HETATM   44  CE  0Q4 A 125       4.560  14.728  28.297  1.00 23.29     0.005 C 
ENDBRANCH  42  43
ENDBRANCH  41  42
ENDBRANCH  35  41
ENDBRANCH  33  35
ENDBRANCH  29  31
ENDBRANCH  27  29
ENDBRANCH  24  25
BRANCH  24  45
HETATM   45  CB4 0Q4 A 125      -4.428  15.865  35.261  1.00 17.07     0.045 C 
BRANCH  45  46
HETATM   46  CG5 0Q4 A 125      -5.900  15.656  35.559  1.00 18.50     0.116 C 
BRANCH  46  47
HETATM   47  CD3 0Q4 A 125      -6.596  16.923  36.080  1.00 26.68     0.172 C 
HETATM   48  OE1 0Q4 A 125      -6.601  17.140  37.306  1.00 29.71    -0.648 OA
HETATM   49  OE2 0Q4 A 125      -7.143  17.720  35.273  1.00 31.35    -0.648 OA
ENDBRANCH  46  47
ENDBRANCH  45  46
ENDBRANCH  24  45
ENDBRANCH  22  24
ENDBRANCH  19  20
BRANCH  19  50
HETATM   50  CB3 0Q4 A 125      -4.079  15.007  29.834  1.00 18.22     0.073 C 
BRANCH  50  51
HETATM   51  CG4 0Q4 A 125      -2.969  15.983  29.820  1.00 21.59    -0.056 A 
HETATM   52  CD1 0Q4 A 125      -3.087  17.181  29.129  1.00 22.99     0.007 A 
HETATM   53  CE1 0Q4 A 125      -2.047  18.139  29.148  1.00 24.00     0.001 A 
HETATM   54  CZ1 0Q4 A 125      -0.872  17.890  29.864  1.00 25.64     0.000 A 
HETATM   55  CE2 0Q4 A 125      -0.737  16.686  30.555  1.00 27.27     0.001 A 
HETATM   56  CD2 0Q4 A 125      -1.798  15.731  30.528  1.00 24.65     0.007 A 
ENDBRANCH  50  51
ENDBRANCH  19  50
ENDBRANCH  17  19
ENDBRANCH  15  16
BRANCH  15  57
HETATM   57  CB2 0Q4 A 125      -7.386  18.016  28.110  1.00 19.32     0.034 C 
BRANCH  57  58
HETATM   58  CG3 0Q4 A 125      -6.787  18.185  26.685  1.00 21.12    -0.020 C 
HETATM   59  CD1 0Q4 A 125      -5.316  18.597  26.698  1.00 21.22     0.009 C 
HETATM   60  CD2 0Q4 A 125      -6.953  16.899  25.897  1.00 17.47     0.009 C 
ENDBRANCH  57  58
ENDBRANCH  15  57
ENDBRANCH  13  15
ENDBRANCH  10  11
BRANCH  10  61
HETATM   61  CB1 0Q4 A 125     -12.445  18.460  27.701  1.00 19.28     0.009 C 
HETATM   62  CG1 0Q4 A 125     -11.403  19.065  26.756  1.00 20.08     0.012 C 
HETATM   63  CG2 0Q4 A 125     -13.740  18.240  26.891  1.00 19.54     0.012 C 
ENDBRANCH  10  61
ENDBRANCH   8  10
ENDBRANCH   5   6
BRANCH   5  64
HETATM   64  CB  0Q4 A 125     -13.608  15.390  32.746  1.00 21.80     0.044 C 
BRANCH  64  65
HETATM   65  CG  0Q4 A 125     -13.063  14.107  33.464  1.00 26.69     0.023 C 
BRANCH  65  66
HETATM   66  CD  0Q4 A 125     -11.625  14.222  34.081  1.00 29.76     0.138 C 
BRANCH  66  67
HETATM   67  NE  0Q4 A 125     -10.535  13.818  33.183  1.00 32.26    -0.227 N 
HETATM   68  CZ  0Q4 A 125      -9.293  14.308  33.225  1.00 34.72     0.665 C 
HETATM   69  NH1 0Q4 A 125      -8.983  15.213  34.139  1.00 35.07    -0.235 N 
HETATM   70  NH2 0Q4 A 125      -8.396  13.989  32.280  1.00 35.86    -0.235 N 
HETATM   71 HH11 0Q4 A 125      -9.671  15.521  34.793  1.00 15.00     0.174 HD
HETATM   72 HH12 0Q4 A 125      -8.055  15.587  34.179  1.00 15.00     0.174 HD
HETATM   73 HH21 0Q4 A 125      -8.644  13.377  31.532  1.00 15.00     0.174 HD
HETATM   74 HH22 0Q4 A 125      -7.471  14.371  32.332  1.00 15.00     0.174 HD
HETATM   75  HE  0Q4 A 125     -10.721  13.139  32.497  1.00 15.00     0.177 HD
ENDBRANCH  66  67
ENDBRANCH  65  66
ENDBRANCH  64  65
ENDBRANCH   5  64
ENDBRANCH   1   5
TORSDOF 29
ENDMDL
MODEL 7
REMARK VINA RESULT:      -7.3      2.672      6.511
REMARK  29 active torsions:
REMARK  status: ('A' for Active; 'I' for Inactive)
REMARK    1  A    between atoms: N_1  and  CA_2 
REMARK    2  A    between atoms: CA_2  and  C_4 
REMARK    3  A    between atoms: CA_2  and  CB_6 
REMARK       I    between atoms: C_4  and  N1_19 
REMARK    4  A    between atoms: CB_6  and  CG_9 
REMARK    5  A    between atoms: CG_9  and  CD_12 
REMARK    6  A    between atoms: CD_12  and  NE_15 
REMARK       I    between atoms: NE_15  and  CZ_16 
REMARK       I    between atoms: CZ_16  and  NH1_17 
REMARK    7  A    between atoms: N1_19  and  CA1_20 
REMARK    8  A    between atoms: CA1_20  and  C1_22 
REMARK    9  A    between atoms: CA1_20  and  CB1_24 
REMARK       I    between atoms: C1_22  and  N2_34 
REMARK   10  A    between atoms: N2_34  and  CA2_35 
REMARK   11  A    between atoms: CA2_35  and  C2_37 
REMARK   12  A    between atoms: CA2_35  and  CB2_39 
REMARK   13  A    between atoms: CB2_39  and  CG3_42 
REMARK   14  A    between atoms: N3_52  and  CA3_53 
REMARK   15  A    between atoms: CA3_53  and  C3_55 
REMARK   16  A    between atoms: CA3_53  and  CB3_57 
REMARK       I    between atoms: C3_55  and  N4_71 
REMARK   17  A    between atoms: CB3_57  and  CG4_60 
REMARK   18  A    between atoms: N4_71  and  CA4_72 
REMARK   19  A    between atoms: CA4_72  and  C4_74 
REMARK   20  A    between atoms: CA4_72  and  CB4_76 
REMARK       I    between atoms: C4_74  and  N5_85 
REMARK   21  A    between atoms: CB4_76  and  CG5_79 
REMARK   22  A    between atoms: CG5_79  and  CD3_82 
REMARK   23  A    between atoms: N5_85  and  CA5_86 
REMARK   24  A    between atoms: CA5_86  and  C5_88 
REMARK       I    between atoms: C5_88  and  N6_94 
REMARK   25  A    between atoms: N6_94  and  CA6_95 
REMARK   26  A    between atoms: CA6_95  and  C6_97 
REMARK   27  A    between atoms: CA6_95  and  CB6_99 
REMARK       I    between atoms: C6_97  and  N7_112 
REMARK   28  A    between atoms: CB6_99  and  CG6_102 
REMARK   29  A    between atoms: CG6_102  and  CD4_105 
ROOT
HETATM    1  N   0Q4 A 125     -10.618  20.003  28.450  1.00 21.27    -0.067 N 
HETATM    2  H   0Q4 A 125     -10.325  19.472  29.282  1.00 15.00     0.275 HD
HETATM    3  H2  0Q4 A 125     -10.122  19.658  27.591  1.00 15.00     0.275 HD
HETATM    4  HN3 0Q4 A 125     -10.403  21.001  28.602  1.00 15.00     0.275 HD
ENDROOT
BRANCH   1   5
HETATM    5  CA  0Q4 A 125     -12.077  19.821  28.174  1.00 21.76     0.274 C 
BRANCH   5   6
HETATM    6  C   0Q4 A 125     -12.409  18.294  28.194  1.00 21.89     0.249 C 
HETATM    7  O   0Q4 A 125     -13.492  17.881  27.737  1.00 22.48    -0.271 OA
HETATM    8  N1  0Q4 A 125     -11.453  17.472  28.655  1.00 19.10    -0.346 N 
HETATM    9  H1  0Q4 A 125     -10.613  17.820  29.023  1.00 15.00     0.163 HD
BRANCH   8  10
HETATM   10  CA1 0Q4 A 125     -11.594  16.015  28.684  1.00 18.90     0.180 C 
BRANCH  10  11
HETATM   11  C1  0Q4 A 125     -11.395  15.439  30.110  1.00 17.14     0.241 C 
HETATM   12  O1  0Q4 A 125     -11.313  14.237  30.330  1.00 18.87    -0.271 OA
HETATM   13  N2  0Q4 A 125     -11.436  16.313  31.100  1.00 17.78    -0.350 N 
HETATM   14  HN2 0Q4 A 125     -11.592  17.264  30.906  1.00 15.00     0.163 HD
BRANCH  13  15
HETATM   15  CA2 0Q4 A 125     -11.197  15.903  32.471  1.00 17.96     0.123 C 
BRANCH  15  16
HETATM   16  C2  0Q4 A 125      -9.764  15.529  32.828  1.00 17.56     0.081 C 
HETATM   17  N3  0Q4 A 125      -8.844  16.423  32.513  1.00 16.64    -0.387 N 
HETATM   18  H3  0Q4 A 125      -9.134  17.245  32.073  1.00 15.00     0.159 HD
BRANCH  17  19
HETATM   19  CA3 0Q4 A 125      -7.417  16.259  32.815  1.00 16.89     0.177 C 
BRANCH  19  20
HETATM   20  C3  0Q4 A 125      -6.725  16.055  31.439  1.00 15.06     0.241 C 
HETATM   21  O2  0Q4 A 125      -7.002  15.074  30.745  1.00 12.51    -0.271 OA
HETATM   22  N4  0Q4 A 125      -5.925  17.036  31.018  1.00 14.54    -0.346 N 
HETATM   23  H4  0Q4 A 125      -5.729  17.795  31.609  1.00 15.00     0.163 HD
BRANCH  22  24
HETATM   24  CA4 0Q4 A 125      -5.265  17.023  29.710  1.00 15.81     0.177 C 
BRANCH  24  25
HETATM   25  C4  0Q4 A 125      -3.768  16.698  29.725  1.00 17.52     0.241 C 
HETATM   26  O3  0Q4 A 125      -3.324  15.642  29.270  1.00 17.50    -0.271 OA
HETATM   27  N5  0Q4 A 125      -3.009  17.548  30.396  1.00 19.61    -0.346 N 
HETATM   28  H5  0Q4 A 125      -3.409  18.325  30.846  1.00 15.00     0.163 HD
BRANCH  27  29
HETATM   29  CA5 0Q4 A 125      -1.577  17.358  30.481  1.00 21.82     0.172 C 
HETATM   30  CB5 0Q4 A 125      -0.912  18.271  29.468  1.00 22.24     0.042 C 
BRANCH  29  31
HETATM   31  C5  0Q4 A 125      -0.925  17.575  31.870  1.00 24.09     0.240 C 
HETATM   32  O4  0Q4 A 125      -1.319  18.449  32.646  1.00 20.88    -0.271 OA
HETATM   33  N6  0Q4 A 125       0.115  16.788  32.124  1.00 27.66    -0.346 N 
HETATM   34  H6  0Q4 A 125       0.383  16.152  31.439  1.00 15.00     0.163 HD
BRANCH  33  35
HETATM   35  CA6 0Q4 A 125       0.928  16.875  33.329  1.00 31.09     0.176 C 
BRANCH  35  36
HETATM   36  C6  0Q4 A 125       2.388  16.960  32.853  1.00 33.78     0.238 C 
HETATM   37  O5  0Q4 A 125       2.718  16.512  31.716  1.00 34.60    -0.271 OA
HETATM   38  N7  0Q4 A 125       3.209  17.459  33.663  1.00 36.53    -0.368 N 
HETATM   39  H72 0Q4 A 125       2.943  17.821  34.578  1.00  0.00     0.159 HD
HETATM   40  H71 0Q4 A 125       4.177  17.516  33.347  1.00  0.00     0.159 HD
ENDBRANCH  35  36
BRANCH  35  41
HETATM   41  CB6 0Q4 A 125       0.718  15.587  34.167  1.00 32.55     0.035 C 
BRANCH  41  42
HETATM   42  CG6 0Q4 A 125       1.077  15.645  35.693  1.00 32.73     0.002 C 
BRANCH  42  43
HETATM   43  CD4 0Q4 A 125       0.505  16.904  36.456  1.00 31.59    -0.004 C 
HETATM   44  CE  0Q4 A 125      -1.010  16.905  36.444  1.00 23.29     0.005 C 
ENDBRANCH  42  43
ENDBRANCH  41  42
ENDBRANCH  35  41
ENDBRANCH  33  35
ENDBRANCH  29  31
ENDBRANCH  27  29
ENDBRANCH  24  25
BRANCH  24  45
HETATM   45  CB4 0Q4 A 125      -5.495  18.390  29.007  1.00 17.07     0.045 C 
BRANCH  45  46
HETATM   46  CG5 0Q4 A 125      -6.164  18.370  27.646  1.00 18.50     0.116 C 
BRANCH  46  47
HETATM   47  CD3 0Q4 A 125      -7.691  18.223  27.726  1.00 26.68     0.172 C 
HETATM   48  OE1 0Q4 A 125      -8.223  18.116  28.847  1.00 29.71    -0.648 OA
HETATM   49  OE2 0Q4 A 125      -8.381  18.216  26.672  1.00 31.35    -0.648 OA
ENDBRANCH  46  47
ENDBRANCH  45  46
ENDBRANCH  24  45
ENDBRANCH  22  24
ENDBRANCH  19  20
BRANCH  19  50
HETATM   50  CB3 0Q4 A 125      -7.295  15.083  33.829  1.00 18.22     0.073 C 
BRANCH  50  51
HETATM   51  CG4 0Q4 A 125      -6.725  15.440  35.145  1.00 21.59    -0.056 A 
HETATM   52  CD1 0Q4 A 125      -5.354  15.396  35.359  1.00 22.99     0.007 A 
HETATM   53  CE1 0Q4 A 125      -4.797  15.780  36.601  1.00 24.00     0.001 A 
HETATM   54  CZ1 0Q4 A 125      -5.626  16.206  37.643  1.00 25.64     0.000 A 
HETATM   55  CE2 0Q4 A 125      -7.006  16.246  37.444  1.00 27.27     0.001 A 
HETATM   56  CD2 0Q4 A 125      -7.551  15.859  36.183  1.00 24.65     0.007 A 
ENDBRANCH  50  51
ENDBRANCH  19  50
ENDBRANCH  17  19
ENDBRANCH  15  16
BRANCH  15  57
HETATM   57  CB2 0Q4 A 125     -12.204  14.795  32.865  1.00 19.32     0.034 C 
BRANCH  57  58
HETATM   58  CG3 0Q4 A 125     -11.712  13.812  33.965  1.00 21.12    -0.020 C 
HETATM   59  CD1 0Q4 A 125     -12.247  14.152  35.355  1.00 21.22     0.009 C 
HETATM   60  CD2 0Q4 A 125     -12.096  12.390  33.600  1.00 17.47     0.009 C 
ENDBRANCH  57  58
ENDBRANCH  15  57
ENDBRANCH  13  15
ENDBRANCH  10  11
BRANCH  10  61
HETATM   61  CB1 0Q4 A 125     -10.645  15.342  27.564  1.00 19.28     0.009 C 
HETATM   62  CG1 0Q4 A 125      -9.260  15.003  28.121  1.00 20.08     0.012 C 
HETATM   63  CG2 0Q4 A 125     -11.270  14.036  27.034  1.00 19.54     0.012 C 
ENDBRANCH  10  61
ENDBRANCH   8  10
ENDBRANCH   5   6
BRANCH   5  64
HETATM   64  CB  0Q4 A 125     -12.420  20.490  26.837  1.00 21.80     0.044 C 
BRANCH  64  65
HETATM   65  CG  0Q4 A 125     -13.697  21.398  26.806  1.00 26.69     0.023 C 
BRANCH  65  66
HETATM   66  CD  0Q4 A 125     -14.680  21.244  28.019  1.00 29.76     0.138 C 
BRANCH  66  67
HETATM   67  NE  0Q4 A 125     -14.391  22.120  29.163  1.00 32.26    -0.227 N 
HETATM   68  CZ  0Q4 A 125     -14.628  21.806  30.439  1.00 34.72     0.665 C 
HETATM   69  NH1 0Q4 A 125     -15.143  20.624  30.733  1.00 35.07    -0.235 N 
HETATM   70  NH2 0Q4 A 125     -14.466  22.716  31.412  1.00 35.86    -0.235 N 
HETATM   71 HH11 0Q4 A 125     -15.349  19.972  30.006  1.00 15.00     0.174 HD
HETATM   72 HH12 0Q4 A 125     -15.324  20.380  31.687  1.00 15.00     0.174 HD
HETATM   73 HH21 0Q4 A 125     -14.163  23.643  31.194  1.00 15.00     0.174 HD
HETATM   74 HH22 0Q4 A 125     -14.651  22.459  32.362  1.00 15.00     0.174 HD
HETATM   75  HE  0Q4 A 125     -13.997  23.003  28.988  1.00 15.00     0.177 HD
ENDBRANCH  66  67
ENDBRANCH  65  66
ENDBRANCH  64  65
ENDBRANCH   5  64
ENDBRANCH   1   5
TORSDOF 29
ENDMDL
MODEL 8
REMARK VINA RESULT:      -7.3      2.557      4.200
REMARK  29 active torsions:
REMARK  status: ('A' for Active; 'I' for Inactive)
REMARK    1  A    between atoms: N_1  and  CA_2 
REMARK    2  A    between atoms: CA_2  and  C_4 
REMARK    3  A    between atoms: CA_2  and  CB_6 
REMARK       I    between atoms: C_4  and  N1_19 
REMARK    4  A    between atoms: CB_6  and  CG_9 
REMARK    5  A    between atoms: CG_9  and  CD_12 
REMARK    6  A    between atoms: CD_12  and  NE_15 
REMARK       I    between atoms: NE_15  and  CZ_16 
REMARK       I    between atoms: CZ_16  and  NH1_17 
REMARK    7  A    between atoms: N1_19  and  CA1_20 
REMARK    8  A    between atoms: CA1_20  and  C1_22 
REMARK    9  A    between atoms: CA1_20  and  CB1_24 
REMARK       I    between atoms: C1_22  and  N2_34 
REMARK   10  A    between atoms: N2_34  and  CA2_35 
REMARK   11  A    between atoms: CA2_35  and  C2_37 
REMARK   12  A    between atoms: CA2_35  and  CB2_39 
REMARK   13  A    between atoms: CB2_39  and  CG3_42 
REMARK   14  A    between atoms: N3_52  and  CA3_53 
REMARK   15  A    between atoms: CA3_53  and  C3_55 
REMARK   16  A    between atoms: CA3_53  and  CB3_57 
REMARK       I    between atoms: C3_55  and  N4_71 
REMARK   17  A    between atoms: CB3_57  and  CG4_60 
REMARK   18  A    between atoms: N4_71  and  CA4_72 
REMARK   19  A    between atoms: CA4_72  and  C4_74 
REMARK   20  A    between atoms: CA4_72  and  CB4_76 
REMARK       I    between atoms: C4_74  and  N5_85 
REMARK   21  A    between atoms: CB4_76  and  CG5_79 
REMARK   22  A    between atoms: CG5_79  and  CD3_82 
REMARK   23  A    between atoms: N5_85  and  CA5_86 
REMARK   24  A    between atoms: CA5_86  and  C5_88 
REMARK       I    between atoms: C5_88  and  N6_94 
REMARK   25  A    between atoms: N6_94  and  CA6_95 
REMARK   26  A    between atoms: CA6_95  and  C6_97 
REMARK   27  A    between atoms: CA6_95  and  CB6_99 
REMARK       I    between atoms: C6_97  and  N7_112 
REMARK   28  A    between atoms: CB6_99  and  CG6_102 
REMARK   29  A    between atoms: CG6_102  and  CD4_105 
ROOT
HETATM    1  N   0Q4 A 125     -15.899  16.388  33.670  1.00 21.27    -0.067 N 
HETATM    2  H   0Q4 A 125     -16.121  15.647  32.990  1.00 15.00     0.275 HD
HETATM    3  H2  0Q4 A 125     -15.242  16.033  34.410  1.00 15.00     0.275 HD
HETATM    4  HN3 0Q4 A 125     -16.776  16.710  34.107  1.00 15.00     0.275 HD
ENDROOT
BRANCH   1   5
HETATM    5  CA  0Q4 A 125     -15.191  17.532  33.017  1.00 21.76     0.274 C 
BRANCH   5   6
HETATM    6  C   0Q4 A 125     -13.665  17.205  32.937  1.00 21.89     0.249 C 
HETATM    7  O   0Q4 A 125     -12.822  18.118  33.012  1.00 22.48    -0.271 OA
HETATM    8  N1  0Q4 A 125     -13.327  15.907  32.858  1.00 19.10    -0.346 N 
HETATM    9  H1  0Q4 A 125     -14.008  15.205  32.785  1.00 15.00     0.163 HD
BRANCH   8  10
HETATM   10  CA1 0Q4 A 125     -11.940  15.440  32.832  1.00 18.90     0.180 C 
BRANCH  10  11
HETATM   11  C1  0Q4 A 125     -11.485  15.043  31.404  1.00 17.14     0.241 C 
HETATM   12  O1  0Q4 A 125     -11.815  13.989  30.876  1.00 18.87    -0.271 OA
HETATM   13  N2  0Q4 A 125     -10.618  15.855  30.824  1.00 17.78    -0.350 N 
HETATM   14  HN2 0Q4 A 125     -10.298  16.651  31.303  1.00 15.00     0.163 HD
BRANCH  13  15
HETATM   15  CA2 0Q4 A 125     -10.171  15.624  29.463  1.00 17.96     0.123 C 
BRANCH  15  16
HETATM   16  C2  0Q4 A 125      -8.669  15.484  29.257  1.00 17.56     0.081 C 
HETATM   17  N3  0Q4 A 125      -7.930  15.576  30.348  1.00 16.64    -0.387 N 
HETATM   18  H3  0Q4 A 125      -8.383  15.733  31.198  1.00 15.00     0.159 HD
BRANCH  17  19
HETATM   19  CA3 0Q4 A 125      -6.470  15.426  30.353  1.00 16.89     0.177 C 
BRANCH  19  20
HETATM   20  C3  0Q4 A 125      -5.964  16.352  31.494  1.00 15.06     0.241 C 
HETATM   21  O2  0Q4 A 125      -6.439  17.482  31.632  1.00 12.51    -0.271 OA
HETATM   22  N4  0Q4 A 125      -5.096  15.823  32.357  1.00 14.54    -0.346 N 
HETATM   23  H4  0Q4 A 125      -4.741  14.921  32.202  1.00 15.00     0.163 HD
BRANCH  22  24
HETATM   24  CA4 0Q4 A 125      -4.590  16.546  33.527  1.00 15.81     0.177 C 
BRANCH  24  25
HETATM   25  C4  0Q4 A 125      -3.117  16.960  33.466  1.00 17.52     0.241 C 
HETATM   26  O3  0Q4 A 125      -2.530  17.432  34.442  1.00 17.50    -0.271 OA
HETATM   27  N5  0Q4 A 125      -2.567  16.929  32.264  1.00 19.61    -0.346 N 
HETATM   28  H5  0Q4 A 125      -3.095  16.655  31.481  1.00 15.00     0.163 HD
BRANCH  27  29
HETATM   29  CA5 0Q4 A 125      -1.179  17.291  32.071  1.00 21.82     0.172 C 
HETATM   30  CB5 0Q4 A 125      -0.922  18.603  32.787  1.00 22.24     0.042 C 
BRANCH  29  31
HETATM   31  C5  0Q4 A 125      -0.119  16.251  32.514  1.00 24.09     0.240 C 
HETATM   32  O4  0Q4 A 125      -0.393  15.056  32.645  1.00 20.88    -0.271 OA
HETATM   33  N6  0Q4 A 125       1.076  16.761  32.791  1.00 27.66    -0.346 N 
HETATM   34  H6  0Q4 A 125       1.195  17.721  32.699  1.00 15.00     0.163 HD
BRANCH  33  35
HETATM   35  CA6 0Q4 A 125       2.196  15.982  33.304  1.00 31.09     0.176 C 
BRANCH  35  36
HETATM   36  C6  0Q4 A 125       2.515  16.558  34.694  1.00 33.78     0.238 C 
HETATM   37  O5  0Q4 A 125       2.905  15.798  35.627  1.00 34.60    -0.271 OA
HETATM   38  N7  0Q4 A 125       2.332  17.792  34.840  1.00 36.53    -0.368 N 
HETATM   39  H72 0Q4 A 125       2.018  18.405  34.088  1.00  0.00     0.159 HD
HETATM   40  H71 0Q4 A 125       2.543  18.174  35.761  1.00  0.00     0.159 HD
ENDBRANCH  35  36
BRANCH  35  41
HETATM   41  CB6 0Q4 A 125       3.410  16.173  32.359  1.00 32.55     0.035 C 
BRANCH  41  42
HETATM   42  CG6 0Q4 A 125       3.116  16.441  30.841  1.00 32.73     0.002 C 
BRANCH  42  43
HETATM   43  CD4 0Q4 A 125       4.394  16.449  29.914  1.00 31.59    -0.004 C 
HETATM   44  CE  0Q4 A 125       4.244  15.466  28.772  1.00 23.29     0.005 C 
ENDBRANCH  42  43
ENDBRANCH  41  42
ENDBRANCH  35  41
ENDBRANCH  33  35
ENDBRANCH  29  31
ENDBRANCH  27  29
ENDBRANCH  24  25
BRANCH  24  45
HETATM   45  CB4 0Q4 A 125      -4.840  15.693  34.802  1.00 17.07     0.045 C 
BRANCH  45  46
HETATM   46  CG5 0Q4 A 125      -6.255  15.651  35.346  1.00 18.50     0.116 C 
BRANCH  46  47
HETATM   47  CD3 0Q4 A 125      -6.640  16.917  36.127  1.00 26.68     0.172 C 
HETATM   48  OE1 0Q4 A 125      -6.518  16.914  37.366  1.00 29.71    -0.648 OA
HETATM   49  OE2 0Q4 A 125      -7.066  17.931  35.515  1.00 31.35    -0.648 OA
ENDBRANCH  46  47
ENDBRANCH  45  46
ENDBRANCH  24  45
ENDBRANCH  22  24
ENDBRANCH  19  20
BRANCH  19  50
HETATM   50  CB3 0Q4 A 125      -5.968  15.764  28.918  1.00 18.22     0.073 C 
BRANCH  50  51
HETATM   51  CG4 0Q4 A 125      -4.556  16.192  28.827  1.00 21.59    -0.056 A 
HETATM   52  CD1 0Q4 A 125      -4.226  17.539  28.776  1.00 22.99     0.007 A 
HETATM   53  CE1 0Q4 A 125      -2.876  17.958  28.735  1.00 24.00     0.001 A 
HETATM   54  CZ1 0Q4 A 125      -1.845  17.013  28.738  1.00 25.64     0.000 A 
HETATM   55  CE2 0Q4 A 125      -2.164  15.656  28.778  1.00 27.27     0.001 A 
HETATM   56  CD2 0Q4 A 125      -3.532  15.251  28.824  1.00 24.65     0.007 A 
ENDBRANCH  50  51
ENDBRANCH  19  50
ENDBRANCH  17  19
ENDBRANCH  15  16
BRANCH  15  57
HETATM   57  CB2 0Q4 A 125     -10.793  16.686  28.524  1.00 19.32     0.034 C 
BRANCH  57  58
HETATM   58  CG3 0Q4 A 125     -10.170  16.760  27.102  1.00 21.12    -0.020 C 
HETATM   59  CD1 0Q4 A 125     -10.918  15.911  26.075  1.00 21.22     0.009 C 
HETATM   60  CD2 0Q4 A 125     -10.116  18.202  26.634  1.00 17.47     0.009 C 
ENDBRANCH  57  58
ENDBRANCH  15  57
ENDBRANCH  13  15
ENDBRANCH  10  11
BRANCH  10  61
HETATM   61  CB1 0Q4 A 125     -11.722  14.284  33.938  1.00 19.28     0.009 C 
HETATM   62  CG1 0Q4 A 125     -12.883  13.287  33.955  1.00 20.08     0.012 C 
HETATM   63  CG2 0Q4 A 125     -10.430  13.493  33.652  1.00 19.54     0.012 C 
ENDBRANCH  10  61
ENDBRANCH   8  10
ENDBRANCH   5   6
BRANCH   5  64
HETATM   64  CB  0Q4 A 125     -15.486  18.816  33.801  1.00 21.80     0.044 C 
BRANCH  64  65
HETATM   65  CG  0Q4 A 125     -15.877  20.083  32.965  1.00 26.69     0.023 C 
BRANCH  65  66
HETATM   66  CD  0Q4 A 125     -15.474  20.058  31.449  1.00 29.76     0.138 C 
BRANCH  66  67
HETATM   67  NE  0Q4 A 125     -14.052  20.314  31.183  1.00 32.26    -0.227 N 
HETATM   68  CZ  0Q4 A 125     -13.487  21.523  31.167  1.00 34.72     0.665 C 
HETATM   69  NH1 0Q4 A 125     -14.228  22.590  31.419  1.00 35.07    -0.235 N 
HETATM   70  NH2 0Q4 A 125     -12.213  21.681  30.778  1.00 35.86    -0.235 N 
HETATM   71 HH11 0Q4 A 125     -15.200  22.489  31.624  1.00 15.00     0.174 HD
HETATM   72 HH12 0Q4 A 125     -13.814  23.502  31.409  1.00 15.00     0.174 HD
HETATM   73 HH21 0Q4 A 125     -11.668  20.894  30.497  1.00 15.00     0.174 HD
HETATM   74 HH22 0Q4 A 125     -11.811  22.599  30.771  1.00 15.00     0.174 HD
HETATM   75  HE  0Q4 A 125     -13.465  19.546  31.002  1.00 15.00     0.177 HD
ENDBRANCH  66  67
ENDBRANCH  65  66
ENDBRANCH  64  65
ENDBRANCH   5  64
ENDBRANCH   1   5
TORSDOF 29
ENDMDL
MODEL 9
REMARK VINA RESULT:      -7.3      3.233      7.339
REMARK  29 active torsions:
REMARK  status: ('A' for Active; 'I' for Inactive)
REMARK    1  A    between atoms: N_1  and  CA_2 
REMARK    2  A    between atoms: CA_2  and  C_4 
REMARK    3  A    between atoms: CA_2  and  CB_6 
REMARK       I    between atoms: C_4  and  N1_19 
REMARK    4  A    between atoms: CB_6  and  CG_9 
REMARK    5  A    between atoms: CG_9  and  CD_12 
REMARK    6  A    between atoms: CD_12  and  NE_15 
REMARK       I    between atoms: NE_15  and  CZ_16 
REMARK       I    between atoms: CZ_16  and  NH1_17 
REMARK    7  A    between atoms: N1_19  and  CA1_20 
REMARK    8  A    between atoms: CA1_20  and  C1_22 
REMARK    9  A    between atoms: CA1_20  and  CB1_24 
REMARK       I    between atoms: C1_22  and  N2_34 
REMARK   10  A    between atoms: N2_34  and  CA2_35 
REMARK   11  A    between atoms: CA2_35  and  C2_37 
REMARK   12  A    between atoms: CA2_35  and  CB2_39 
REMARK   13  A    between atoms: CB2_39  and  CG3_42 
REMARK   14  A    between atoms: N3_52  and  CA3_53 
REMARK   15  A    between atoms: CA3_53  and  C3_55 
REMARK   16  A    between atoms: CA3_53  and  CB3_57 
REMARK       I    between atoms: C3_55  and  N4_71 
REMARK   17  A    between atoms: CB3_57  and  CG4_60 
REMARK   18  A    between atoms: N4_71  and  CA4_72 
REMARK   19  A    between atoms: CA4_72  and  C4_74 
REMARK   20  A    between atoms: CA4_72  and  CB4_76 
REMARK       I    between atoms: C4_74  and  N5_85 
REMARK   21  A    between atoms: CB4_76  and  CG5_79 
REMARK   22  A    between atoms: CG5_79  and  CD3_82 
REMARK   23  A    between atoms: N5_85  and  CA5_86 
REMARK   24  A    between atoms: CA5_86  and  C5_88 
REMARK       I    between atoms: C5_88  and  N6_94 
REMARK   25  A    between atoms: N6_94  and  CA6_95 
REMARK   26  A    between atoms: CA6_95  and  C6_97 
REMARK   27  A    between atoms: CA6_95  and  CB6_99 
REMARK       I    between atoms: C6_97  and  N7_112 
REMARK   28  A    between atoms: CB6_99  and  CG6_102 
REMARK   29  A    between atoms: CG6_102  and  CD4_105 
ROOT
HETATM    1  N   0Q4 A 125     -12.692  14.246  36.960  1.00 21.27    -0.067 N 
HETATM    2  H   0Q4 A 125     -11.882  14.536  36.395  1.00 15.00     0.275 HD
HETATM    3  H2  0Q4 A 125     -12.926  14.974  37.682  1.00 15.00     0.275 HD
HETATM    4  HN3 0Q4 A 125     -12.469  13.351  37.425  1.00 15.00     0.275 HD
ENDROOT
BRANCH   1   5
HETATM    5  CA  0Q4 A 125     -13.921  14.103  36.119  1.00 21.76     0.274 C 
BRANCH   5   6
HETATM    6  C   0Q4 A 125     -13.560  14.430  34.635  1.00 21.89     0.249 C 
HETATM    7  O   0Q4 A 125     -12.534  15.083  34.367  1.00 22.48    -0.271 OA
HETATM    8  N1  0Q4 A 125     -14.363  13.917  33.689  1.00 19.10    -0.346 N 
HETATM    9  H1  0Q4 A 125     -15.175  13.418  33.923  1.00 15.00     0.163 HD
BRANCH   8  10
HETATM   10  CA1 0Q4 A 125     -14.125  14.088  32.255  1.00 18.90     0.180 C 
BRANCH  10  11
HETATM   11  C1  0Q4 A 125     -12.647  13.813  31.873  1.00 17.14     0.241 C 
HETATM   12  O1  0Q4 A 125     -12.150  12.695  31.925  1.00 18.87    -0.271 OA
HETATM   13  N2  0Q4 A 125     -11.910  14.875  31.599  1.00 17.78    -0.350 N 
HETATM   14  HN2 0Q4 A 125     -12.308  15.773  31.651  1.00 15.00     0.163 HD
BRANCH  13  15
HETATM   15  CA2 0Q4 A 125     -10.533  14.738  31.165  1.00 17.96     0.123 C 
BRANCH  15  16
HETATM   16  C2  0Q4 A 125      -9.463  14.931  32.231  1.00 17.56     0.081 C 
HETATM   17  N3  0Q4 A 125      -8.932  16.139  32.299  1.00 16.64    -0.387 N 
HETATM   18  H3  0Q4 A 125      -9.246  16.814  31.667  1.00 15.00     0.159 HD
BRANCH  17  19
HETATM   19  CA3 0Q4 A 125      -7.918  16.525  33.287  1.00 16.89     0.177 C 
BRANCH  19  20
HETATM   20  C3  0Q4 A 125      -6.687  16.986  32.458  1.00 15.06     0.241 C 
HETATM   21  O2  0Q4 A 125      -6.585  18.162  32.101  1.00 12.51    -0.271 OA
HETATM   22  N4  0Q4 A 125      -5.724  16.085  32.263  1.00 14.54    -0.346 N 
HETATM   23  H4  0Q4 A 125      -5.853  15.158  32.560  1.00 15.00     0.163 HD
BRANCH  22  24
HETATM   24  CA4 0Q4 A 125      -4.470  16.393  31.569  1.00 15.81     0.177 C 
BRANCH  24  25
HETATM   25  C4  0Q4 A 125      -4.257  15.677  30.232  1.00 17.52     0.241 C 
HETATM   26  O3  0Q4 A 125      -3.351  15.994  29.458  1.00 17.50    -0.271 OA
HETATM   27  N5  0Q4 A 125      -5.200  14.813  29.894  1.00 19.61    -0.346 N 
HETATM   28  H5  0Q4 A 125      -5.973  14.664  30.482  1.00 15.00     0.163 HD
BRANCH  27  29
HETATM   29  CA5 0Q4 A 125      -5.114  14.065  28.658  1.00 21.82     0.172 C 
HETATM   30  CB5 0Q4 A 125      -5.212  12.587  28.984  1.00 22.24     0.042 C 
BRANCH  29  31
HETATM   31  C5  0Q4 A 125      -6.147  14.415  27.558  1.00 24.09     0.240 C 
HETATM   32  O4  0Q4 A 125      -6.599  13.561  26.792  1.00 20.88    -0.271 OA
HETATM   33  N6  0Q4 A 125      -6.455  15.705  27.477  1.00 27.66    -0.346 N 
HETATM   34  H6  0Q4 A 125      -6.022  16.318  28.096  1.00 15.00     0.163 HD
BRANCH  33  35
HETATM   35  CA6 0Q4 A 125      -7.338  16.271  26.465  1.00 31.09     0.176 C 
BRANCH  35  36
HETATM   36  C6  0Q4 A 125      -6.431  16.699  25.299  1.00 33.78     0.238 C 
HETATM   37  O5  0Q4 A 125      -5.972  17.877  25.245  1.00 34.60    -0.271 OA
HETATM   38  N7  0Q4 A 125      -6.215  15.833  24.415  1.00 36.53    -0.368 N 
HETATM   39  H72 0Q4 A 125      -6.584  14.883  24.459  1.00  0.00     0.159 HD
HETATM   40  H71 0Q4 A 125      -5.614  16.117  23.642  1.00  0.00     0.159 HD
ENDBRANCH  35  36
BRANCH  35  41
HETATM   41  CB6 0Q4 A 125      -8.053  17.510  27.063  1.00 32.55     0.035 C 
BRANCH  41  42
HETATM   42  CG6 0Q4 A 125      -7.766  17.861  28.566  1.00 32.73     0.002 C 
BRANCH  42  43
HETATM   43  CD4 0Q4 A 125      -6.874  19.146  28.782  1.00 31.59    -0.004 C 
HETATM   44  CE  0Q4 A 125      -5.401  18.812  28.664  1.00 23.29     0.005 C 
ENDBRANCH  42  43
ENDBRANCH  41  42
ENDBRANCH  35  41
ENDBRANCH  33  35
ENDBRANCH  29  31
ENDBRANCH  27  29
ENDBRANCH  24  25
BRANCH  24  45
HETATM   45  CB4 0Q4 A 125      -3.274  16.095  32.517  1.00 17.07     0.045 C 
BRANCH  45  46
HETATM   46  CG5 0Q4 A 125      -3.020  17.074  33.647  1.00 18.50     0.116 C 
BRANCH  46  47
HETATM   47  CD3 0Q4 A 125      -1.565  17.564  33.704  1.00 26.68     0.172 C 
HETATM   48  OE1 0Q4 A 125      -0.830  17.145  34.618  1.00 29.71    -0.648 OA
HETATM   49  OE2 0Q4 A 125      -1.135  18.369  32.837  1.00 31.35    -0.648 OA
ENDBRANCH  46  47
ENDBRANCH  45  46
ENDBRANCH  24  45
ENDBRANCH  22  24
ENDBRANCH  19  20
BRANCH  19  50
HETATM   50  CB3 0Q4 A 125      -7.698  15.299  34.223  1.00 18.22     0.073 C 
BRANCH  50  51
HETATM   51  CG4 0Q4 A 125      -6.885  15.563  35.428  1.00 21.59    -0.056 A 
HETATM   52  CD1 0Q4 A 125      -7.456  16.131  36.558  1.00 22.99     0.007 A 
HETATM   53  CE1 0Q4 A 125      -6.695  16.345  37.731  1.00 24.00     0.001 A 
HETATM   54  CZ1 0Q4 A 125      -5.342  15.992  37.767  1.00 25.64     0.000 A 
HETATM   55  CE2 0Q4 A 125      -4.754  15.430  36.635  1.00 27.27     0.001 A 
HETATM   56  CD2 0Q4 A 125      -5.538  15.217  35.460  1.00 24.65     0.007 A 
ENDBRANCH  50  51
ENDBRANCH  19  50
ENDBRANCH  17  19
ENDBRANCH  15  16
BRANCH  15  57
HETATM   57  CB2 0Q4 A 125     -10.288  15.632  29.925  1.00 19.32     0.034 C 
BRANCH  57  58
HETATM   58  CG3 0Q4 A 125     -11.440  15.646  28.880  1.00 21.12    -0.020 C 
HETATM   59  CD1 0Q4 A 125     -11.852  17.057  28.462  1.00 21.22     0.009 C 
HETATM   60  CD2 0Q4 A 125     -11.040  14.844  27.656  1.00 17.47     0.009 C 
ENDBRANCH  57  58
ENDBRANCH  15  57
ENDBRANCH  13  15
ENDBRANCH  10  11
BRANCH  10  61
HETATM   61  CB1 0Q4 A 125     -14.673  15.526  31.767  1.00 19.28     0.009 C 
HETATM   62  CG1 0Q4 A 125     -14.997  15.535  30.272  1.00 20.08     0.012 C 
HETATM   63  CG2 0Q4 A 125     -15.960  15.905  32.528  1.00 19.54     0.012 C 
ENDBRANCH  10  61
ENDBRANCH   8  10
ENDBRANCH   5   6
BRANCH   5  64
HETATM   64  CB  0Q4 A 125     -15.020  15.012  36.682  1.00 21.80     0.044 C 
BRANCH  64  65
HETATM   65  CG  0Q4 A 125     -14.669  16.531  36.846  1.00 26.69     0.023 C 
BRANCH  65  66
HETATM   66  CD  0Q4 A 125     -14.798  17.114  38.297  1.00 29.76     0.138 C 
BRANCH  66  67
HETATM   67  NE  0Q4 A 125     -13.839  18.179  38.621  1.00 32.26    -0.227 N 
HETATM   68  CZ  0Q4 A 125     -14.126  19.483  38.630  1.00 34.72     0.665 C 
HETATM   69  NH1 0Q4 A 125     -15.355  19.880  38.347  1.00 35.07    -0.235 N 
HETATM   70  NH2 0Q4 A 125     -13.159  20.398  38.799  1.00 35.86    -0.235 N 
HETATM   71 HH11 0Q4 A 125     -16.063  19.209  38.134  1.00 15.00     0.174 HD
HETATM   72 HH12 0Q4 A 125     -15.580  20.856  38.351  1.00 15.00     0.174 HD
HETATM   73 HH21 0Q4 A 125     -12.210  20.115  38.923  1.00 15.00     0.174 HD
HETATM   74 HH22 0Q4 A 125     -13.398  21.371  38.800  1.00 15.00     0.174 HD
HETATM   75  HE  0Q4 A 125     -12.917  17.925  38.848  1.00 15.00     0.177 HD
ENDBRANCH  66  67
ENDBRANCH  65  66
ENDBRANCH  64  65
ENDBRANCH   5  64
ENDBRANCH   1   5
TORSDOF 29
ENDMDL
MODEL 10
REMARK VINA RESULT:      -7.3      2.839      5.734
REMARK  29 active torsions:
REMARK  status: ('A' for Active; 'I' for Inactive)
REMARK    1  A    between atoms: N_1  and  CA_2 
REMARK    2  A    between atoms: CA_2  and  C_4 
REMARK    3  A    between atoms: CA_2  and  CB_6 
REMARK       I    between atoms: C_4  and  N1_19 
REMARK    4  A    between atoms: CB_6  and  CG_9 
REMARK    5  A    between atoms: CG_9  and  CD_12 
REMARK    6  A    between atoms: CD_12  and  NE_15 
REMARK       I    between atoms: NE_15  and  CZ_16 
REMARK       I    between atoms: CZ_16  and  NH1_17 
REMARK    7  A    between atoms: N1_19  and  CA1_20 
REMARK    8  A    between atoms: CA1_20  and  C1_22 
REMARK    9  A    between atoms: CA1_20  and  CB1_24 
REMARK       I    between atoms: C1_22  and  N2_34 
REMARK   10  A    between atoms: N2_34  and  CA2_35 
REMARK   11  A    between atoms: CA2_35  and  C2_37 
REMARK   12  A    between atoms: CA2_35  and  CB2_39 
REMARK   13  A    between atoms: CB2_39  and  CG3_42 
REMARK   14  A    between atoms: N3_52  and  CA3_53 
REMARK   15  A    between atoms: CA3_53  and  C3_55 
REMARK   16  A    between atoms: CA3_53  and  CB3_57 
REMARK       I    between atoms: C3_55  and  N4_71 
REMARK   17  A    between atoms: CB3_57  and  CG4_60 
REMARK   18  A    between atoms: N4_71  and  CA4_72 
REMARK   19  A    between atoms: CA4_72  and  C4_74 
REMARK   20  A    between atoms: CA4_72  and  CB4_76 
REMARK       I    between atoms: C4_74  and  N5_85 
REMARK   21  A    between atoms: CB4_76  and  CG5_79 
REMARK   22  A    between atoms: CG5_79  and  CD3_82 
REMARK   23  A    between atoms: N5_85  and  CA5_86 
REMARK   24  A    between atoms: CA5_86  and  C5_88 
REMARK       I    between atoms: C5_88  and  N6_94 
REMARK   25  A    between atoms: N6_94  and  CA6_95 
REMARK   26  A    between atoms: CA6_95  and  C6_97 
REMARK   27  A    between atoms: CA6_95  and  CB6_99 
REMARK       I    between atoms: C6_97  and  N7_112 
REMARK   28  A    between atoms: CB6_99  and  CG6_102 
REMARK   29  A    between atoms: CG6_102  and  CD4_105 
ROOT
HETATM    1  N   0Q4 A 125     -10.221  19.014  28.153  1.00 21.27    -0.067 N 
HETATM    2  H   0Q4 A 125     -10.287  20.026  28.330  1.00 15.00     0.275 HD
HETATM    3  H2  0Q4 A 125     -10.287  18.472  29.051  1.00 15.00     0.275 HD
HETATM    4  HN3 0Q4 A 125      -9.319  18.817  27.691  1.00 15.00     0.275 HD
ENDROOT
BRANCH   1   5
HETATM    5  CA  0Q4 A 125     -11.356  18.534  27.307  1.00 21.76     0.274 C 
BRANCH   5   6
HETATM    6  C   0Q4 A 125     -11.034  17.093  26.796  1.00 21.89     0.249 C 
HETATM    7  O   0Q4 A 125     -11.792  16.144  27.071  1.00 22.48    -0.271 OA
HETATM    8  N1  0Q4 A 125      -9.958  16.958  26.004  1.00 19.10    -0.346 N 
HETATM    9  H1  0Q4 A 125      -9.366  17.717  25.811  1.00 15.00     0.163 HD
BRANCH   8  10
HETATM   10  CA1 0Q4 A 125      -9.560  15.684  25.402  1.00 18.90     0.180 C 
BRANCH  10  11
HETATM   11  C1  0Q4 A 125      -8.487  14.951  26.249  1.00 17.14     0.241 C 
HETATM   12  O1  0Q4 A 125      -8.402  13.730  26.291  1.00 18.87    -0.271 OA
HETATM   13  N2  0Q4 A 125      -7.736  15.714  27.022  1.00 17.78    -0.350 N 
HETATM   14  HN2 0Q4 A 125      -7.881  16.686  27.038  1.00 15.00     0.163 HD
BRANCH  13  15
HETATM   15  CA2 0Q4 A 125      -6.655  15.150  27.808  1.00 17.96     0.123 C 
BRANCH  15  16
HETATM   16  C2  0Q4 A 125      -6.861  15.112  29.317  1.00 17.56     0.081 C 
HETATM   17  N3  0Q4 A 125      -7.605  16.082  29.817  1.00 16.64    -0.387 N 
HETATM   18  H3  0Q4 A 125      -7.961  16.752  29.203  1.00 15.00     0.159 HD
BRANCH  17  19
HETATM   19  CA3 0Q4 A 125      -7.949  16.189  31.240  1.00 16.89     0.177 C 
BRANCH  19  20
HETATM   20  C3  0Q4 A 125      -6.720  16.865  31.911  1.00 15.06     0.241 C 
HETATM   21  O2  0Q4 A 125      -6.628  18.094  31.940  1.00 12.51    -0.271 OA
HETATM   22  N4  0Q4 A 125      -5.860  16.060  32.536  1.00 14.54    -0.346 N 
HETATM   23  H4  0Q4 A 125      -5.972  15.086  32.481  1.00 15.00     0.163 HD
BRANCH  22  24
HETATM   24  CA4 0Q4 A 125      -4.699  16.555  33.280  1.00 15.81     0.177 C 
BRANCH  24  25
HETATM   25  C4  0Q4 A 125      -3.338  16.338  32.610  1.00 17.52     0.241 C 
HETATM   26  O3  0Q4 A 125      -2.936  15.216  32.296  1.00 17.50    -0.271 OA
HETATM   27  N5  0Q4 A 125      -2.563  17.408  32.538  1.00 19.61    -0.346 N 
HETATM   28  H5  0Q4 A 125      -2.868  18.269  32.900  1.00 15.00     0.163 HD
BRANCH  27  29
HETATM   29  CA5 0Q4 A 125      -1.256  17.338  31.922  1.00 21.82     0.172 C 
HETATM   30  CB5 0Q4 A 125      -1.285  18.150  30.641  1.00 22.24     0.042 C 
BRANCH  29  31
HETATM   31  C5  0Q4 A 125      -0.052  17.791  32.786  1.00 24.09     0.240 C 
HETATM   32  O4  0Q4 A 125       0.184  18.981  33.003  1.00 20.88    -0.271 OA
HETATM   33  N6  0Q4 A 125       0.722  16.802  33.219  1.00 27.66    -0.346 N 
HETATM   34  H6  0Q4 A 125       0.484  15.892  32.969  1.00 15.00     0.163 HD
BRANCH  33  35
HETATM   35  CA6 0Q4 A 125       1.951  17.000  33.976  1.00 31.09     0.176 C 
BRANCH  35  36
HETATM   36  C6  0Q4 A 125       3.094  16.975  32.947  1.00 33.78     0.238 C 
HETATM   37  O5  0Q4 A 125       2.883  16.573  31.765  1.00 34.60    -0.271 OA
HETATM   38  N7  0Q4 A 125       4.224  17.336  33.361  1.00 36.53    -0.368 N 
HETATM   39  H72 0Q4 A 125       4.394  17.661  34.313  1.00  0.00     0.159 HD
HETATM   40  H71 0Q4 A 125       4.981  17.319  32.679  1.00  0.00     0.159 HD
ENDBRANCH  35  36
BRANCH  35  41
HETATM   41  CB6 0Q4 A 125       2.115  15.829  34.979  1.00 32.55     0.035 C 
BRANCH  41  42
HETATM   42  CG6 0Q4 A 125       1.110  15.756  36.182  1.00 32.73     0.002 C 
BRANCH  42  43
HETATM   43  CD4 0Q4 A 125       1.734  15.216  37.529  1.00 31.59    -0.004 C 
HETATM   44  CE  0Q4 A 125       1.058  15.843  38.731  1.00 23.29     0.005 C 
ENDBRANCH  42  43
ENDBRANCH  41  42
ENDBRANCH  35  41
ENDBRANCH  33  35
ENDBRANCH  29  31
ENDBRANCH  27  29
ENDBRANCH  24  25
BRANCH  24  45
HETATM   45  CB4 0Q4 A 125      -4.689  15.917  34.698  1.00 17.07     0.045 C 
BRANCH  45  46
HETATM   46  CG5 0Q4 A 125      -6.032  15.598  35.327  1.00 18.50     0.116 C 
BRANCH  46  47
HETATM   47  CD3 0Q4 A 125      -6.697  16.819  35.980  1.00 26.68     0.172 C 
HETATM   48  OE1 0Q4 A 125      -7.164  17.709  35.246  1.00 29.71    -0.648 OA
HETATM   49  OE2 0Q4 A 125      -6.766  16.905  37.235  1.00 31.35    -0.648 OA
ENDBRANCH  46  47
ENDBRANCH  45  46
ENDBRANCH  24  45
ENDBRANCH  22  24
ENDBRANCH  19  20
BRANCH  19  50
HETATM   50  CB3 0Q4 A 125      -8.302  14.755  31.736  1.00 18.22     0.073 C 
BRANCH  50  51
HETATM   51  CG4 0Q4 A 125      -9.673  14.590  32.264  1.00 21.59    -0.056 A 
HETATM   52  CD1 0Q4 A 125      -9.885  14.094  33.543  1.00 22.99     0.007 A 
HETATM   53  CE1 0Q4 A 125     -11.191  13.976  34.072  1.00 24.00     0.001 A 
HETATM   54  CZ1 0Q4 A 125     -12.299  14.353  33.305  1.00 25.64     0.000 A 
HETATM   55  CE2 0Q4 A 125     -12.100  14.843  32.015  1.00 27.27     0.001 A 
HETATM   56  CD2 0Q4 A 125     -10.774  14.959  31.498  1.00 24.65     0.007 A 
ENDBRANCH  50  51
ENDBRANCH  19  50
ENDBRANCH  17  19
ENDBRANCH  15  16
BRANCH  15  57
HETATM   57  CB2 0Q4 A 125      -5.319  15.828  27.418  1.00 19.32     0.034 C 
BRANCH  57  58
HETATM   58  CG3 0Q4 A 125      -4.461  16.337  28.611  1.00 21.12    -0.020 C 
HETATM   59  CD1 0Q4 A 125      -3.100  15.649  28.707  1.00 21.22     0.009 C 
HETATM   60  CD2 0Q4 A 125      -4.271  17.839  28.509  1.00 17.47     0.009 C 
ENDBRANCH  57  58
ENDBRANCH  15  57
ENDBRANCH  13  15
ENDBRANCH  10  11
BRANCH  10  61
HETATM   61  CB1 0Q4 A 125      -9.142  15.904  23.858  1.00 19.28     0.009 C 
HETATM   62  CG1 0Q4 A 125      -9.158  14.591  23.072  1.00 20.08     0.012 C 
HETATM   63  CG2 0Q4 A 125     -10.116  16.878  23.164  1.00 19.54     0.012 C 
ENDBRANCH  10  61
ENDBRANCH   8  10
ENDBRANCH   5   6
BRANCH   5  64
HETATM   64  CB  0Q4 A 125     -11.589  19.534  26.167  1.00 21.80     0.044 C 
BRANCH  64  65
HETATM   65  CG  0Q4 A 125     -12.493  20.774  26.485  1.00 26.69     0.023 C 
BRANCH  65  66
HETATM   66  CD  0Q4 A 125     -13.460  20.623  27.712  1.00 29.76     0.138 C 
BRANCH  66  67
HETATM   67  NE  0Q4 A 125     -13.119  21.457  28.872  1.00 32.26    -0.227 N 
HETATM   68  CZ  0Q4 A 125     -12.914  20.993  30.108  1.00 34.72     0.665 C 
HETATM   69  NH1 0Q4 A 125     -13.001  19.693  30.336  1.00 35.07    -0.235 N 
HETATM   70  NH2 0Q4 A 125     -12.745  21.835  31.138  1.00 35.86    -0.235 N 
HETATM   71 HH11 0Q4 A 125     -13.214  19.065  29.589  1.00 15.00     0.174 HD
HETATM   72 HH12 0Q4 A 125     -12.850  19.335  31.259  1.00 15.00     0.174 HD
HETATM   73 HH21 0Q4 A 125     -12.767  22.823  30.995  1.00 15.00     0.174 HD
HETATM   74 HH22 0Q4 A 125     -12.595  21.463  32.057  1.00 15.00     0.174 HD
HETATM   75  HE  0Q4 A 125     -13.033  22.427  28.742  1.00 15.00     0.177 HD
ENDBRANCH  66  67
ENDBRANCH  65  66
ENDBRANCH  64  65
ENDBRANCH   5  64
ENDBRANCH   1   5
TORSDOF 29
ENDMDL
MODEL 11
REMARK VINA RESULT:      -7.2      1.748      2.371
REMARK  29 active torsions:
REMARK  status: ('A' for Active; 'I' for Inactive)
REMARK    1  A    between atoms: N_1  and  CA_2 
REMARK    2  A    between atoms: CA_2  and  C_4 
REMARK    3  A    between atoms: CA_2  and  CB_6 
REMARK       I    between atoms: C_4  and  N1_19 
REMARK    4  A    between atoms: CB_6  and  CG_9 
REMARK    5  A    between atoms: CG_9  and  CD_12 
REMARK    6  A    between atoms: CD_12  and  NE_15 
REMARK       I    between atoms: NE_15  and  CZ_16 
REMARK       I    between atoms: CZ_16  and  NH1_17 
REMARK    7  A    between atoms: N1_19  and  CA1_20 
REMARK    8  A    between atoms: CA1_20  and  C1_22 
REMARK    9  A    between atoms: CA1_20  and  CB1_24 
REMARK       I    between atoms: C1_22  and  N2_34 
REMARK   10  A    between atoms: N2_34  and  CA2_35 
REMARK   11  A    between atoms: CA2_35  and  C2_37 
REMARK   12  A    between atoms: CA2_35  and  CB2_39 
REMARK   13  A    between atoms: CB2_39  and  CG3_42 
REMARK   14  A    between atoms: N3_52  and  CA3_53 
REMARK   15  A    between atoms: CA3_53  and  C3_55 
REMARK   16  A    between atoms: CA3_53  and  CB3_57 
REMARK       I    between atoms: C3_55  and  N4_71 
REMARK   17  A    between atoms: CB3_57  and  CG4_60 
REMARK   18  A    between atoms: N4_71  and  CA4_72 
REMARK   19  A    between atoms: CA4_72  and  C4_74 
REMARK   20  A    between atoms: CA4_72  and  CB4_76 
REMARK       I    between atoms: C4_74  and  N5_85 
REMARK   21  A    between atoms: CB4_76  and  CG5_79 
REMARK   22  A    between atoms: CG5_79  and  CD3_82 
REMARK   23  A    between atoms: N5_85  and  CA5_86 
REMARK   24  A    between atoms: CA5_86  and  C5_88 
REMARK       I    between atoms: C5_88  and  N6_94 
REMARK   25  A    between atoms: N6_94  and  CA6_95 
REMARK   26  A    between atoms: CA6_95  and  C6_97 
REMARK   27  A    between atoms: CA6_95  and  CB6_99 
REMARK       I    between atoms: C6_97  and  N7_112 
REMARK   28  A    between atoms: CB6_99  and  CG6_102 
REMARK   29  A    between atoms: CG6_102  and  CD4_105 
ROOT
HETATM    1  N   0Q4 A 125     -12.352  17.696  33.360  1.00 21.27    -0.067 N 
HETATM    2  H   0Q4 A 125     -11.419  17.980  33.033  1.00 15.00     0.275 HD
HETATM    3  H2  0Q4 A 125     -13.102  18.265  32.893  1.00 15.00     0.275 HD
HETATM    4  HN3 0Q4 A 125     -12.399  17.827  34.383  1.00 15.00     0.275 HD
ENDROOT
BRANCH   1   5
HETATM    5  CA  0Q4 A 125     -12.646  16.273  33.004  1.00 21.76     0.274 C 
BRANCH   5   6
HETATM    6  C   0Q4 A 125     -12.943  16.186  31.472  1.00 21.89     0.249 C 
HETATM    7  O   0Q4 A 125     -13.506  15.181  30.998  1.00 22.48    -0.271 OA
HETATM    8  N1  0Q4 A 125     -12.629  17.261  30.732  1.00 19.10    -0.346 N 
HETATM    9  H1  0Q4 A 125     -12.173  18.036  31.124  1.00 15.00     0.163 HD
BRANCH   8  10
HETATM   10  CA1 0Q4 A 125     -12.898  17.352  29.295  1.00 18.90     0.180 C 
BRANCH  10  11
HETATM   11  C1  0Q4 A 125     -11.730  16.786  28.447  1.00 17.14     0.241 C 
HETATM   12  O1  0Q4 A 125     -11.910  16.180  27.398  1.00 18.87    -0.271 OA
HETATM   13  N2  0Q4 A 125     -10.525  16.888  28.977  1.00 17.78    -0.350 N 
HETATM   14  HN2 0Q4 A 125     -10.413  17.300  29.863  1.00 15.00     0.163 HD
BRANCH  13  15
HETATM   15  CA2 0Q4 A 125      -9.347  16.455  28.249  1.00 17.96     0.123 C 
BRANCH  15  16
HETATM   16  C2  0Q4 A 125      -8.427  15.476  28.966  1.00 17.56     0.081 C 
HETATM   17  N3  0Q4 A 125      -7.500  16.018  29.734  1.00 16.64    -0.387 N 
HETATM   18  H3  0Q4 A 125      -7.457  16.993  29.785  1.00 15.00     0.159 HD
BRANCH  17  19
HETATM   19  CA3 0Q4 A 125      -6.550  15.237  30.535  1.00 16.89     0.177 C 
BRANCH  19  20
HETATM   20  C3  0Q4 A 125      -6.079  16.193  31.666  1.00 15.06     0.241 C 
HETATM   21  O2  0Q4 A 125      -6.622  17.290  31.818  1.00 12.51    -0.271 OA
HETATM   22  N4  0Q4 A 125      -5.159  15.720  32.508  1.00 14.54    -0.346 N 
HETATM   23  H4  0Q4 A 125      -4.750  14.842  32.343  1.00 15.00     0.163 HD
BRANCH  22  24
HETATM   24  CA4 0Q4 A 125      -4.674  16.473  33.667  1.00 15.81     0.177 C 
BRANCH  24  25
HETATM   25  C4  0Q4 A 125      -3.185  16.832  33.651  1.00 17.52     0.241 C 
HETATM   26  O3  0Q4 A 125      -2.604  17.255  34.653  1.00 17.50    -0.271 OA
HETATM   27  N5  0Q4 A 125      -2.608  16.810  32.461  1.00 19.61    -0.346 N 
HETATM   28  H5  0Q4 A 125      -3.127  16.577  31.660  1.00 15.00     0.163 HD
BRANCH  27  29
HETATM   29  CA5 0Q4 A 125      -1.203  17.123  32.310  1.00 21.82     0.172 C 
HETATM   30  CB5 0Q4 A 125      -1.015  18.610  32.544  1.00 22.24     0.042 C 
BRANCH  29  31
HETATM   31  C5  0Q4 A 125      -0.213  16.336  33.205  1.00 24.09     0.240 C 
HETATM   32  O4  0Q4 A 125      -0.030  15.125  33.066  1.00 20.88    -0.271 OA
HETATM   33  N6  0Q4 A 125       0.368  17.058  34.157  1.00 27.66    -0.346 N 
HETATM   34  H6  0Q4 A 125       0.137  18.001  34.220  1.00 15.00     0.163 HD
BRANCH  33  35
HETATM   35  CA6 0Q4 A 125       1.268  16.508  35.162  1.00 31.09     0.176 C 
BRANCH  35  36
HETATM   36  C6  0Q4 A 125       0.875  17.170  36.494  1.00 33.78     0.238 C 
HETATM   37  O5  0Q4 A 125       1.763  17.482  37.341  1.00 34.60    -0.271 OA
HETATM   38  N7  0Q4 A 125      -0.354  17.341  36.688  1.00 36.53    -0.368 N 
HETATM   39  H72 0Q4 A 125      -1.070  17.090  36.006  1.00  0.00     0.159 HD
HETATM   40  H71 0Q4 A 125      -0.615  17.779  37.571  1.00  0.00     0.159 HD
ENDBRANCH  35  36
BRANCH  35  41
HETATM   41  CB6 0Q4 A 125       2.724  16.890  34.790  1.00 32.55     0.035 C 
BRANCH  41  42
HETATM   42  CG6 0Q4 A 125       3.393  16.129  33.592  1.00 32.73     0.002 C 
BRANCH  42  43
HETATM   43  CD4 0Q4 A 125       4.595  16.896  32.913  1.00 31.59    -0.004 C 
HETATM   44  CE  0Q4 A 125       5.123  16.129  31.718  1.00 23.29     0.005 C 
ENDBRANCH  42  43
ENDBRANCH  41  42
ENDBRANCH  35  41
ENDBRANCH  33  35
ENDBRANCH  29  31
ENDBRANCH  27  29
ENDBRANCH  24  25
BRANCH  24  45
HETATM   45  CB4 0Q4 A 125      -5.006  15.683  34.965  1.00 17.07     0.045 C 
BRANCH  45  46
HETATM   46  CG5 0Q4 A 125      -6.460  15.625  35.391  1.00 18.50     0.116 C 
BRANCH  46  47
HETATM   47  CD3 0Q4 A 125      -6.907  16.863  36.183  1.00 26.68     0.172 C 
HETATM   48  OE1 0Q4 A 125      -7.105  17.927  35.567  1.00 29.71    -0.648 OA
HETATM   49  OE2 0Q4 A 125      -7.071  16.791  37.430  1.00 31.35    -0.648 OA
ENDBRANCH  46  47
ENDBRANCH  45  46
ENDBRANCH  24  45
ENDBRANCH  22  24
ENDBRANCH  19  20
BRANCH  19  50
HETATM   50  CB3 0Q4 A 125      -5.446  14.722  29.564  1.00 18.22     0.073 C 
BRANCH  50  51
HETATM   51  CG4 0Q4 A 125      -4.332  15.662  29.320  1.00 21.59    -0.056 A 
HETATM   52  CD1 0Q4 A 125      -3.020  15.211  29.281  1.00 22.99     0.007 A 
HETATM   53  CE1 0Q4 A 125      -1.952  16.096  29.003  1.00 24.00     0.001 A 
HETATM   54  CZ1 0Q4 A 125      -2.204  17.452  28.769  1.00 25.64     0.000 A 
HETATM   55  CE2 0Q4 A 125      -3.517  17.919  28.815  1.00 27.27     0.001 A 
HETATM   56  CD2 0Q4 A 125      -4.583  17.011  29.093  1.00 24.65     0.007 A 
ENDBRANCH  50  51
ENDBRANCH  19  50
ENDBRANCH  17  19
ENDBRANCH  15  16
BRANCH  15  57
HETATM   57  CB2 0Q4 A 125      -8.582  17.691  27.716  1.00 19.32     0.034 C 
BRANCH  57  58
HETATM   58  CG3 0Q4 A 125      -8.063  17.570  26.255  1.00 21.12    -0.020 C 
HETATM   59  CD1 0Q4 A 125      -6.653  16.987  26.167  1.00 21.22     0.009 C 
HETATM   60  CD2 0Q4 A 125      -9.019  16.727  25.433  1.00 17.47     0.009 C 
ENDBRANCH  57  58
ENDBRANCH  15  57
ENDBRANCH  13  15
ENDBRANCH  10  11
BRANCH  10  61
HETATM   61  CB1 0Q4 A 125     -13.326  18.859  28.904  1.00 19.28     0.009 C 
HETATM   62  CG1 0Q4 A 125     -13.273  19.797  30.112  1.00 20.08     0.012 C 
HETATM   63  CG2 0Q4 A 125     -12.383  19.430  27.825  1.00 19.54     0.012 C 
ENDBRANCH  10  61
ENDBRANCH   8  10
ENDBRANCH   5   6
BRANCH   5  64
HETATM   64  CB  0Q4 A 125     -13.809  15.770  33.868  1.00 21.80     0.044 C 
BRANCH  64  65
HETATM   65  CG  0Q4 A 125     -13.612  14.393  34.589  1.00 26.69     0.023 C 
BRANCH  65  66
HETATM   66  CD  0Q4 A 125     -13.025  14.455  36.043  1.00 29.76     0.138 C 
BRANCH  66  67
HETATM   67  NE  0Q4 A 125     -13.132  15.766  36.697  1.00 32.26    -0.227 N 
HETATM   68  CZ  0Q4 A 125     -14.093  16.110  37.558  1.00 34.72     0.665 C 
HETATM   69  NH1 0Q4 A 125     -15.022  15.226  37.882  1.00 35.07    -0.235 N 
HETATM   70  NH2 0Q4 A 125     -14.199  17.372  38.001  1.00 35.86    -0.235 N 
HETATM   71 HH11 0Q4 A 125     -15.001  14.309  37.489  1.00 15.00     0.174 HD
HETATM   72 HH12 0Q4 A 125     -15.747  15.474  38.527  1.00 15.00     0.174 HD
HETATM   73 HH21 0Q4 A 125     -13.558  18.073  37.694  1.00 15.00     0.174 HD
HETATM   74 HH22 0Q4 A 125     -14.929  17.607  38.646  1.00 15.00     0.174 HD
HETATM   75  HE  0Q4 A 125     -12.455  16.448  36.491  1.00 15.00     0.177 HD
ENDBRANCH  66  67
ENDBRANCH  65  66
ENDBRANCH  64  65
ENDBRANCH   5  64
ENDBRANCH   1   5
TORSDOF 29
ENDMDL
MODEL 12
REMARK VINA RESULT:      -7.2      4.276      8.126
REMARK  29 active torsions:
REMARK  status: ('A' for Active; 'I' for Inactive)
REMARK    1  A    between atoms: N_1  and  CA_2 
REMARK    2  A    between atoms: CA_2  and  C_4 
REMARK    3  A    between atoms: CA_2  and  CB_6 
REMARK       I    between atoms: C_4  and  N1_19 
REMARK    4  A    between atoms: CB_6  and  CG_9 
REMARK    5  A    between atoms: CG_9  and  CD_12 
REMARK    6  A    between atoms: CD_12  and  NE_15 
REMARK       I    between atoms: NE_15  and  CZ_16 
REMARK       I    between atoms: CZ_16  and  NH1_17 
REMARK    7  A    between atoms: N1_19  and  CA1_20 
REMARK    8  A    between atoms: CA1_20  and  C1_22 
REMARK    9  A    between atoms: CA1_20  and  CB1_24 
REMARK       I    between atoms: C1_22  and  N2_34 
REMARK   10  A    between atoms: N2_34  and  CA2_35 
REMARK   11  A    between atoms: CA2_35  and  C2_37 
REMARK   12  A    between atoms: CA2_35  and  CB2_39 
REMARK   13  A    between atoms: CB2_39  and  CG3_42 
REMARK   14  A    between atoms: N3_52  and  CA3_53 
REMARK   15  A    between atoms: CA3_53  and  C3_55 
REMARK   16  A    between atoms: CA3_53  and  CB3_57 
REMARK       I    between atoms: C3_55  and  N4_71 
REMARK   17  A    between atoms: CB3_57  and  CG4_60 
REMARK   18  A    between atoms: N4_71  and  CA4_72 
REMARK   19  A    between atoms: CA4_72  and  C4_74 
REMARK   20  A    between atoms: CA4_72  and  CB4_76 
REMARK       I    between atoms: C4_74  and  N5_85 
REMARK   21  A    between atoms: CB4_76  and  CG5_79 
REMARK   22  A    between atoms: CG5_79  and  CD3_82 
REMARK   23  A    between atoms: N5_85  and  CA5_86 
REMARK   24  A    between atoms: CA5_86  and  C5_88 
REMARK       I    between atoms: C5_88  and  N6_94 
REMARK   25  A    between atoms: N6_94  and  CA6_95 
REMARK   26  A    between atoms: CA6_95  and  C6_97 
REMARK   27  A    between atoms: CA6_95  and  CB6_99 
REMARK       I    between atoms: C6_97  and  N7_112 
REMARK   28  A    between atoms: CB6_99  and  CG6_102 
REMARK   29  A    between atoms: CG6_102  and  CD4_105 
ROOT
HETATM    1  N   0Q4 A 125      -4.790  10.914  21.530  1.00 21.27    -0.067 N 
HETATM    2  H   0Q4 A 125      -4.708  10.324  20.690  1.00 15.00     0.275 HD
HETATM    3  H2  0Q4 A 125      -5.295  11.809  21.310  1.00 15.00     0.275 HD
HETATM    4  HN3 0Q4 A 125      -3.843  11.124  21.882  1.00 15.00     0.275 HD
ENDROOT
BRANCH   1   5
HETATM    5  CA  0Q4 A 125      -5.603  10.242  22.590  1.00 21.76     0.274 C 
BRANCH   5   6
HETATM    6  C   0Q4 A 125      -6.467  11.317  23.324  1.00 21.89     0.249 C 
HETATM    7  O   0Q4 A 125      -6.878  12.320  22.710  1.00 22.48    -0.271 OA
HETATM    8  N1  0Q4 A 125      -6.791  11.065  24.602  1.00 19.10    -0.346 N 
HETATM    9  H1  0Q4 A 125      -6.444  10.276  25.071  1.00 15.00     0.163 HD
BRANCH   8  10
HETATM   10  CA1 0Q4 A 125      -7.640  11.948  25.404  1.00 18.90     0.180 C 
BRANCH  10  11
HETATM   11  C1  0Q4 A 125      -6.866  12.579  26.591  1.00 17.14     0.241 C 
HETATM   12  O1  0Q4 A 125      -6.046  11.953  27.251  1.00 18.87    -0.271 OA
HETATM   13  N2  0Q4 A 125      -7.225  13.804  26.931  1.00 17.78    -0.350 N 
HETATM   14  HN2 0Q4 A 125      -7.948  14.256  26.442  1.00 15.00     0.163 HD
BRANCH  13  15
HETATM   15  CA2 0Q4 A 125      -6.528  14.523  27.982  1.00 17.96     0.123 C 
BRANCH  15  16
HETATM   16  C2  0Q4 A 125      -7.399  15.220  29.020  1.00 17.56     0.081 C 
HETATM   17  N3  0Q4 A 125      -7.161  14.895  30.278  1.00 16.64    -0.387 N 
HETATM   18  H3  0Q4 A 125      -6.464  14.235  30.458  1.00 15.00     0.159 HD
BRANCH  17  19
HETATM   19  CA3 0Q4 A 125      -7.868  15.491  31.417  1.00 16.89     0.177 C 
BRANCH  19  20
HETATM   20  C3  0Q4 A 125      -6.827  16.412  32.113  1.00 15.06     0.241 C 
HETATM   21  O2  0Q4 A 125      -7.073  17.608  32.284  1.00 12.51    -0.271 OA
HETATM   22  N4  0Q4 A 125      -5.736  15.821  32.603  1.00 14.54    -0.346 N 
HETATM   23  H4  0Q4 A 125      -5.580  14.866  32.436  1.00 15.00     0.163 HD
BRANCH  22  24
HETATM   24  CA4 0Q4 A 125      -4.705  16.543  33.352  1.00 15.81     0.177 C 
BRANCH  24  25
HETATM   25  C4  0Q4 A 125      -3.271  16.375  32.840  1.00 17.52     0.241 C 
HETATM   26  O3  0Q4 A 125      -2.621  15.347  33.041  1.00 17.50    -0.271 OA
HETATM   27  N5  0Q4 A 125      -2.726  17.458  32.312  1.00 19.61    -0.346 N 
HETATM   28  H5  0Q4 A 125      -3.232  18.300  32.268  1.00 15.00     0.163 HD
BRANCH  27  29
HETATM   29  CA5 0Q4 A 125      -1.378  17.431  31.785  1.00 21.82     0.172 C 
HETATM   30  CB5 0Q4 A 125      -1.327  18.314  30.553  1.00 22.24     0.042 C 
BRANCH  29  31
HETATM   31  C5  0Q4 A 125      -0.241  17.841  32.755  1.00 24.09     0.240 C 
HETATM   32  O4  0Q4 A 125       0.132  19.011  32.864  1.00 20.88    -0.271 OA
HETATM   33  N6  0Q4 A 125       0.325  16.829  33.404  1.00 27.66    -0.346 N 
HETATM   34  H6  0Q4 A 125      -0.006  15.932  33.229  1.00 15.00     0.163 HD
BRANCH  33  35
HETATM   35  CA6 0Q4 A 125       1.464  16.972  34.301  1.00 31.09     0.176 C 
BRANCH  35  36
HETATM   36  C6  0Q4 A 125       2.714  16.689  33.451  1.00 33.78     0.238 C 
HETATM   37  O5  0Q4 A 125       2.622  16.018  32.381  1.00 34.60    -0.271 OA
HETATM   38  N7  0Q4 A 125       3.803  17.127  33.898  1.00 36.53    -0.368 N 
HETATM   39  H72 0Q4 A 125       3.878  17.668  34.759  1.00  0.00     0.159 HD
HETATM   40  H71 0Q4 A 125       4.631  16.939  33.334  1.00  0.00     0.159 HD
ENDBRANCH  35  36
BRANCH  35  41
HETATM   41  CB6 0Q4 A 125       1.343  15.919  35.433  1.00 32.55     0.035 C 
BRANCH  41  42
HETATM   42  CG6 0Q4 A 125       0.630  16.357  36.761  1.00 32.73     0.002 C 
BRANCH  42  43
HETATM   43  CD4 0Q4 A 125       1.579  17.040  37.823  1.00 31.59    -0.004 C 
HETATM   44  CE  0Q4 A 125       2.990  16.499  37.718  1.00 23.29     0.005 C 
ENDBRANCH  42  43
ENDBRANCH  41  42
ENDBRANCH  35  41
ENDBRANCH  33  35
ENDBRANCH  29  31
ENDBRANCH  27  29
ENDBRANCH  24  25
BRANCH  24  45
HETATM   45  CB4 0Q4 A 125      -4.776  16.129  34.849  1.00 17.07     0.045 C 
BRANCH  45  46
HETATM   46  CG5 0Q4 A 125      -6.115  15.651  35.376  1.00 18.50     0.116 C 
BRANCH  46  47
HETATM   47  CD3 0Q4 A 125      -6.892  16.742  36.127  1.00 26.68     0.172 C 
HETATM   48  OE1 0Q4 A 125      -7.049  17.849  35.578  1.00 29.71    -0.648 OA
HETATM   49  OE2 0Q4 A 125      -7.361  16.510  37.273  1.00 31.35    -0.648 OA
ENDBRANCH  46  47
ENDBRANCH  45  46
ENDBRANCH  24  45
ENDBRANCH  22  24
ENDBRANCH  19  20
BRANCH  19  50
HETATM   50  CB3 0Q4 A 125      -8.431  14.318  32.273  1.00 18.22     0.073 C 
BRANCH  50  51
HETATM   51  CG4 0Q4 A 125      -9.835  14.472  32.710  1.00 21.59    -0.056 A 
HETATM   52  CD1 0Q4 A 125     -10.533  15.643  32.449  1.00 22.99     0.007 A 
HETATM   53  CE1 0Q4 A 125     -11.890  15.782  32.823  1.00 24.00     0.001 A 
HETATM   54  CZ1 0Q4 A 125     -12.551  14.735  33.475  1.00 25.64     0.000 A 
HETATM   55  CE2 0Q4 A 125     -11.858  13.558  33.752  1.00 27.27     0.001 A 
HETATM   56  CD2 0Q4 A 125     -10.490  13.433  33.363  1.00 24.65     0.007 A 
ENDBRANCH  50  51
ENDBRANCH  19  50
ENDBRANCH  17  19
ENDBRANCH  15  16
BRANCH  15  57
HETATM   57  CB2 0Q4 A 125      -5.489  15.483  27.353  1.00 19.32     0.034 C 
BRANCH  57  58
HETATM   58  CG3 0Q4 A 125      -4.275  15.832  28.261  1.00 21.12    -0.020 C 
HETATM   59  CD1 0Q4 A 125      -4.502  17.082  29.110  1.00 21.22     0.009 C 
HETATM   60  CD2 0Q4 A 125      -3.944  14.654  29.159  1.00 17.47     0.009 C 
ENDBRANCH  57  58
ENDBRANCH  15  57
ENDBRANCH  13  15
ENDBRANCH  10  11
BRANCH  10  61
HETATM   61  CB1 0Q4 A 125      -8.992  11.178  25.835  1.00 19.28     0.009 C 
HETATM   62  CG1 0Q4 A 125     -10.040  11.201  24.719  1.00 20.08     0.012 C 
HETATM   63  CG2 0Q4 A 125      -8.697   9.702  26.170  1.00 19.54     0.012 C 
ENDBRANCH  10  61
ENDBRANCH   8  10
ENDBRANCH   5   6
BRANCH   5  64
HETATM   64  CB  0Q4 A 125      -4.663   9.484  23.536  1.00 21.80     0.044 C 
BRANCH  64  65
HETATM   65  CG  0Q4 A 125      -3.208   9.211  23.021  1.00 26.69     0.023 C 
BRANCH  65  66
HETATM   66  CD  0Q4 A 125      -2.149   8.838  24.116  1.00 29.76     0.138 C 
BRANCH  66  67
HETATM   67  NE  0Q4 A 125      -2.565   9.117  25.497  1.00 32.26    -0.227 N 
HETATM   68  CZ  0Q4 A 125      -1.824   8.866  26.580  1.00 34.72     0.665 C 
HETATM   69  NH1 0Q4 A 125      -0.618   8.343  26.435  1.00 35.07    -0.235 N 
HETATM   70  NH2 0Q4 A 125      -2.334   9.019  27.811  1.00 35.86    -0.235 N 
HETATM   71 HH11 0Q4 A 125      -0.264   8.144  25.523  1.00 15.00     0.174 HD
HETATM   72 HH12 0Q4 A 125      -0.055   8.151  27.240  1.00 15.00     0.174 HD
HETATM   73 HH21 0Q4 A 125      -3.276   9.327  27.936  1.00 15.00     0.174 HD
HETATM   74 HH22 0Q4 A 125      -1.760   8.822  28.609  1.00 15.00     0.174 HD
HETATM   75  HE  0Q4 A 125      -3.450   9.516  25.647  1.00 15.00     0.177 HD
ENDBRANCH  66  67
ENDBRANCH  65  66
ENDBRANCH  64  65
ENDBRANCH   5  64
ENDBRANCH   1   5
TORSDOF 29
ENDMDL
MODEL 13
REMARK VINA RESULT:      -7.1      2.792      7.787
REMARK  29 active torsions:
REMARK  status: ('A' for Active; 'I' for Inactive)
REMARK    1  A    between atoms: N_1  and  CA_2 
REMARK    2  A    between atoms: CA_2  and  C_4 
REMARK    3  A    between atoms: CA_2  and  CB_6 
REMARK       I    between atoms: C_4  and  N1_19 
REMARK    4  A    between atoms: CB_6  and  CG_9 
REMARK    5  A    between atoms: CG_9  and  CD_12 
REMARK    6  A    between atoms: CD_12  and  NE_15 
REMARK       I    between atoms: NE_15  and  CZ_16 
REMARK       I    between atoms: CZ_16  and  NH1_17 
REMARK    7  A    between atoms: N1_19  and  CA1_20 
REMARK    8  A    between atoms: CA1_20  and  C1_22 
REMARK    9  A    between atoms: CA1_20  and  CB1_24 
REMARK       I    between atoms: C1_22  and  N2_34 
REMARK   10  A    between atoms: N2_34  and  CA2_35 
REMARK   11  A    between atoms: CA2_35  and  C2_37 
REMARK   12  A    between atoms: CA2_35  and  CB2_39 
REMARK   13  A    between atoms: CB2_39  and  CG3_42 
REMARK   14  A    between atoms: N3_52  and  CA3_53 
REMARK   15  A    between atoms: CA3_53  and  C3_55 
REMARK   16  A    between atoms: CA3_53  and  CB3_57 
REMARK       I    between atoms: C3_55  and  N4_71 
REMARK   17  A    between atoms: CB3_57  and  CG4_60 
REMARK   18  A    between atoms: N4_71  and  CA4_72 
REMARK   19  A    between atoms: CA4_72  and  C4_74 
REMARK   20  A    between atoms: CA4_72  and  CB4_76 
REMARK       I    between atoms: C4_74  and  N5_85 
REMARK   21  A    between atoms: CB4_76  and  CG5_79 
REMARK   22  A    between atoms: CG5_79  and  CD3_82 
REMARK   23  A    between atoms: N5_85  and  CA5_86 
REMARK   24  A    between atoms: CA5_86  and  C5_88 
REMARK       I    between atoms: C5_88  and  N6_94 
REMARK   25  A    between atoms: N6_94  and  CA6_95 
REMARK   26  A    between atoms: CA6_95  and  C6_97 
REMARK   27  A    between atoms: CA6_95  and  CB6_99 
REMARK       I    between atoms: C6_97  and  N7_112 
REMARK   28  A    between atoms: CB6_99  and  CG6_102 
REMARK   29  A    between atoms: CG6_102  and  CD4_105 
ROOT
HETATM    1  N   0Q4 A 125      -8.133  14.249  26.574  1.00 21.27    -0.067 N 
HETATM    2  H   0Q4 A 125      -7.899  13.964  25.612  1.00 15.00     0.275 HD
HETATM    3  H2  0Q4 A 125      -7.540  13.733  27.272  1.00 15.00     0.275 HD
HETATM    4  HN3 0Q4 A 125      -9.131  14.046  26.745  1.00 15.00     0.275 HD
ENDROOT
BRANCH   1   5
HETATM    5  CA  0Q4 A 125      -7.850  15.700  26.798  1.00 21.76     0.274 C 
BRANCH   5   6
HETATM    6  C   0Q4 A 125      -9.157  16.516  26.543  1.00 21.89     0.249 C 
HETATM    7  O   0Q4 A 125      -9.107  17.619  25.966  1.00 22.48    -0.271 OA
HETATM    8  N1  0Q4 A 125     -10.313  15.939  26.908  1.00 19.10    -0.346 N 
HETATM    9  H1  0Q4 A 125     -10.329  15.076  27.374  1.00 15.00     0.163 HD
BRANCH   8  10
HETATM   10  CA1 0Q4 A 125     -11.623  16.554  26.684  1.00 18.90     0.180 C 
BRANCH  10  11
HETATM   11  C1  0Q4 A 125     -12.067  17.433  27.882  1.00 17.14     0.241 C 
HETATM   12  O1  0Q4 A 125     -11.609  18.552  28.083  1.00 18.87    -0.271 OA
HETATM   13  N2  0Q4 A 125     -12.885  16.864  28.749  1.00 17.78    -0.350 N 
HETATM   14  HN2 0Q4 A 125     -13.170  15.933  28.613  1.00 15.00     0.163 HD
BRANCH  13  15
HETATM   15  CA2 0Q4 A 125     -13.420  17.609  29.873  1.00 17.96     0.123 C 
BRANCH  15  16
HETATM   16  C2  0Q4 A 125     -13.288  16.958  31.243  1.00 17.56     0.081 C 
HETATM   17  N3  0Q4 A 125     -12.064  16.607  31.595  1.00 16.64    -0.387 N 
HETATM   18  H3  0Q4 A 125     -11.339  16.774  30.963  1.00 15.00     0.159 HD
BRANCH  17  19
HETATM   19  CA3 0Q4 A 125     -11.733  16.006  32.892  1.00 16.89     0.177 C 
BRANCH  19  20
HETATM   20  C3  0Q4 A 125     -10.263  15.519  32.759  1.00 15.06     0.241 C 
HETATM   21  O2  0Q4 A 125     -10.022  14.354  32.433  1.00 12.51    -0.271 OA
HETATM   22  N4  0Q4 A 125      -9.311  16.442  32.901  1.00 14.54    -0.346 N 
HETATM   23  H4  0Q4 A 125      -9.550  17.356  33.167  1.00 15.00     0.163 HD
BRANCH  22  24
HETATM   24  CA4 0Q4 A 125      -7.885  16.151  32.727  1.00 15.81     0.177 C 
BRANCH  24  25
HETATM   25  C4  0Q4 A 125      -6.940  16.844  33.714  1.00 17.52     0.241 C 
HETATM   26  O3  0Q4 A 125      -7.333  17.716  34.491  1.00 17.50    -0.271 OA
HETATM   27  N5  0Q4 A 125      -5.657  16.560  33.566  1.00 19.61    -0.346 N 
HETATM   28  H5  0Q4 A 125      -5.361  15.944  32.860  1.00 15.00     0.163 HD
BRANCH  27  29
HETATM   29  CA5 0Q4 A 125      -4.661  17.144  34.439  1.00 21.82     0.172 C 
HETATM   30  CB5 0Q4 A 125      -4.647  16.362  35.739  1.00 22.24     0.042 C 
BRANCH  29  31
HETATM   31  C5  0Q4 A 125      -3.218  17.241  33.885  1.00 24.09     0.240 C 
HETATM   32  O4  0Q4 A 125      -2.293  17.710  34.552  1.00 20.88    -0.271 OA
HETATM   33  N6  0Q4 A 125      -3.078  16.833  32.628  1.00 27.66    -0.346 N 
HETATM   34  H6  0Q4 A 125      -3.869  16.512  32.162  1.00 15.00     0.163 HD
BRANCH  33  35
HETATM   35  CA6 0Q4 A 125      -1.831  16.912  31.879  1.00 31.09     0.176 C 
BRANCH  35  36
HETATM   36  C6  0Q4 A 125      -2.219  16.820  30.394  1.00 33.78     0.238 C 
HETATM   37  O5  0Q4 A 125      -2.625  17.846  29.774  1.00 34.60    -0.271 OA
HETATM   38  N7  0Q4 A 125      -2.139  15.682  29.868  1.00 36.53    -0.368 N 
HETATM   39  H72 0Q4 A 125      -1.811  14.855  30.367  1.00  0.00     0.159 HD
HETATM   40  H71 0Q4 A 125      -2.397  15.621  28.883  1.00  0.00     0.159 HD
ENDBRANCH  35  36
BRANCH  35  41
HETATM   41  CB6 0Q4 A 125      -0.937  15.706  32.270  1.00 32.55     0.035 C 
BRANCH  41  42
HETATM   42  CG6 0Q4 A 125       0.486  16.015  32.854  1.00 32.73     0.002 C 
BRANCH  42  43
HETATM   43  CD4 0Q4 A 125       1.173  17.310  32.265  1.00 31.59    -0.004 C 
HETATM   44  CE  0Q4 A 125       1.757  17.040  30.894  1.00 23.29     0.005 C 
ENDBRANCH  42  43
ENDBRANCH  41  42
ENDBRANCH  35  41
ENDBRANCH  33  35
ENDBRANCH  29  31
ENDBRANCH  27  29
ENDBRANCH  24  25
BRANCH  24  45
HETATM   45  CB4 0Q4 A 125      -7.466  16.501  31.271  1.00 17.07     0.045 C 
BRANCH  45  46
HETATM   46  CG5 0Q4 A 125      -7.420  15.365  30.267  1.00 18.50     0.116 C 
BRANCH  46  47
HETATM   47  CD3 0Q4 A 125      -6.013  14.773  30.092  1.00 26.68     0.172 C 
HETATM   48  OE1 0Q4 A 125      -5.054  15.333  30.654  1.00 29.71    -0.648 OA
HETATM   49  OE2 0Q4 A 125      -5.847  13.738  29.393  1.00 31.35    -0.648 OA
ENDBRANCH  46  47
ENDBRANCH  45  46
ENDBRANCH  24  45
ENDBRANCH  22  24
ENDBRANCH  19  20
BRANCH  19  50
HETATM   50  CB3 0Q4 A 125     -12.800  14.905  33.173  1.00 18.22     0.073 C 
BRANCH  50  51
HETATM   51  CG4 0Q4 A 125     -13.014  14.584  34.599  1.00 21.59    -0.056 A 
HETATM   52  CD1 0Q4 A 125     -12.717  13.321  35.093  1.00 22.99     0.007 A 
HETATM   53  CE1 0Q4 A 125     -12.876  13.019  36.466  1.00 24.00     0.001 A 
HETATM   54  CZ1 0Q4 A 125     -13.347  13.994  37.352  1.00 25.64     0.000 A 
HETATM   55  CE2 0Q4 A 125     -13.658  15.263  36.866  1.00 27.27     0.001 A 
HETATM   56  CD2 0Q4 A 125     -13.488  15.552  35.478  1.00 24.65     0.007 A 
ENDBRANCH  50  51
ENDBRANCH  19  50
ENDBRANCH  17  19
ENDBRANCH  15  16
BRANCH  15  57
HETATM   57  CB2 0Q4 A 125     -14.877  18.034  29.567  1.00 19.32     0.034 C 
BRANCH  57  58
HETATM   58  CG3 0Q4 A 125     -15.030  19.397  28.834  1.00 21.12    -0.020 C 
HETATM   59  CD1 0Q4 A 125     -15.505  19.249  27.389  1.00 21.22     0.009 C 
HETATM   60  CD2 0Q4 A 125     -15.986  20.293  29.600  1.00 17.47     0.009 C 
ENDBRANCH  57  58
ENDBRANCH  15  57
ENDBRANCH  13  15
ENDBRANCH  10  11
BRANCH  10  61
HETATM   61  CB1 0Q4 A 125     -12.700  15.428  26.259  1.00 19.28     0.009 C 
HETATM   62  CG1 0Q4 A 125     -13.802  16.004  25.367  1.00 20.08     0.012 C 
HETATM   63  CG2 0Q4 A 125     -12.017  14.285  25.482  1.00 19.54     0.012 C 
ENDBRANCH  10  61
ENDBRANCH   8  10
ENDBRANCH   5   6
BRANCH   5  64
HETATM   64  CB  0Q4 A 125      -6.690  16.129  25.891  1.00 21.80     0.044 C 
BRANCH  64  65
HETATM   65  CG  0Q4 A 125      -5.840  17.359  26.362  1.00 26.69     0.023 C 
BRANCH  65  66
HETATM   66  CD  0Q4 A 125      -5.324  17.312  27.843  1.00 29.76     0.138 C 
BRANCH  66  67
HETATM   67  NE  0Q4 A 125      -5.222  18.621  28.502  1.00 32.26    -0.227 N 
HETATM   68  CZ  0Q4 A 125      -6.265  19.371  28.868  1.00 34.72     0.665 C 
HETATM   69  NH1 0Q4 A 125      -7.492  18.928  28.650  1.00 35.07    -0.235 N 
HETATM   70  NH2 0Q4 A 125      -6.085  20.615  29.336  1.00 35.86    -0.235 N 
HETATM   71 HH11 0Q4 A 125      -7.635  18.038  28.220  1.00 15.00     0.174 HD
HETATM   72 HH12 0Q4 A 125      -8.280  19.483  28.920  1.00 15.00     0.174 HD
HETATM   73 HH21 0Q4 A 125      -5.166  20.997  29.421  1.00 15.00     0.174 HD
HETATM   74 HH22 0Q4 A 125      -6.882  21.160  29.602  1.00 15.00     0.174 HD
HETATM   75  HE  0Q4 A 125      -4.327  18.981  28.692  1.00 15.00     0.177 HD
ENDBRANCH  66  67
ENDBRANCH  65  66
ENDBRANCH  64  65
ENDBRANCH   5  64
ENDBRANCH   1   5
TORSDOF 29
ENDMDL
MODEL 14
REMARK VINA RESULT:      -7.1      2.817     12.607
REMARK  29 active torsions:
REMARK  status: ('A' for Active; 'I' for Inactive)
REMARK    1  A    between atoms: N_1  and  CA_2 
REMARK    2  A    between atoms: CA_2  and  C_4 
REMARK    3  A    between atoms: CA_2  and  CB_6 
REMARK       I    between atoms: C_4  and  N1_19 
REMARK    4  A    between atoms: CB_6  and  CG_9 
REMARK    5  A    between atoms: CG_9  and  CD_12 
REMARK    6  A    between atoms: CD_12  and  NE_15 
REMARK       I    between atoms: NE_15  and  CZ_16 
REMARK       I    between atoms: CZ_16  and  NH1_17 
REMARK    7  A    between atoms: N1_19  and  CA1_20 
REMARK    8  A    between atoms: CA1_20  and  C1_22 
REMARK    9  A    between atoms: CA1_20  and  CB1_24 
REMARK       I    between atoms: C1_22  and  N2_34 
REMARK   10  A    between atoms: N2_34  and  CA2_35 
REMARK   11  A    between atoms: CA2_35  and  C2_37 
REMARK   12  A    between atoms: CA2_35  and  CB2_39 
REMARK   13  A    between atoms: CB2_39  and  CG3_42 
REMARK   14  A    between atoms: N3_52  and  CA3_53 
REMARK   15  A    between atoms: CA3_53  and  C3_55 
REMARK   16  A    between atoms: CA3_53  and  CB3_57 
REMARK       I    between atoms: C3_55  and  N4_71 
REMARK   17  A    between atoms: CB3_57  and  CG4_60 
REMARK   18  A    between atoms: N4_71  and  CA4_72 
REMARK   19  A    between atoms: CA4_72  and  C4_74 
REMARK   20  A    between atoms: CA4_72  and  CB4_76 
REMARK       I    between atoms: C4_74  and  N5_85 
REMARK   21  A    between atoms: CB4_76  and  CG5_79 
REMARK   22  A    between atoms: CG5_79  and  CD3_82 
REMARK   23  A    between atoms: N5_85  and  CA5_86 
REMARK   24  A    between atoms: CA5_86  and  C5_88 
REMARK       I    between atoms: C5_88  and  N6_94 
REMARK   25  A    between atoms: N6_94  and  CA6_95 
REMARK   26  A    between atoms: CA6_95  and  C6_97 
REMARK   27  A    between atoms: CA6_95  and  CB6_99 
REMARK       I    between atoms: C6_97  and  N7_112 
REMARK   28  A    between atoms: CB6_99  and  CG6_102 
REMARK   29  A    between atoms: CG6_102  and  CD4_105 
ROOT
HETATM    1  N   0Q4 A 125       1.483  16.158  35.882  1.00 21.27    -0.067 N 
HETATM    2  H   0Q4 A 125       2.107  15.341  35.932  1.00 15.00     0.275 HD
HETATM    3  H2  0Q4 A 125       1.786  16.903  36.559  1.00 15.00     0.275 HD
HETATM    4  HN3 0Q4 A 125       0.521  15.855  36.103  1.00 15.00     0.275 HD
ENDROOT
BRANCH   1   5
HETATM    5  CA  0Q4 A 125       1.530  16.798  34.531  1.00 21.76     0.274 C 
BRANCH   5   6
HETATM    6  C   0Q4 A 125       0.070  17.077  34.051  1.00 21.89     0.249 C 
HETATM    7  O   0Q4 A 125      -0.828  17.322  34.878  1.00 22.48    -0.271 OA
HETATM    8  N1  0Q4 A 125      -0.136  17.106  32.724  1.00 19.10    -0.346 N 
HETATM    9  H1  0Q4 A 125       0.583  16.895  32.091  1.00 15.00     0.163 HD
BRANCH   8  10
HETATM   10  CA1 0Q4 A 125      -1.435  17.409  32.121  1.00 18.90     0.180 C 
BRANCH  10  11
HETATM   11  C1  0Q4 A 125      -2.578  16.568  32.745  1.00 17.14     0.241 C 
HETATM   12  O1  0Q4 A 125      -2.769  15.394  32.452  1.00 18.87    -0.271 OA
HETATM   13  N2  0Q4 A 125      -3.416  17.220  33.531  1.00 17.78    -0.350 N 
HETATM   14  HN2 0Q4 A 125      -3.295  18.184  33.683  1.00 15.00     0.163 HD
BRANCH  13  15
HETATM   15  CA2 0Q4 A 125      -4.485  16.526  34.225  1.00 17.96     0.123 C 
BRANCH  15  16
HETATM   16  C2  0Q4 A 125      -5.882  16.668  33.635  1.00 17.56     0.081 C 
HETATM   17  N3  0Q4 A 125      -6.099  16.004  32.513  1.00 16.64    -0.387 N 
HETATM   18  H3  0Q4 A 125      -5.363  15.484  32.137  1.00 15.00     0.159 HD
BRANCH  17  19
HETATM   19  CA3 0Q4 A 125      -7.393  15.985  31.820  1.00 16.89     0.177 C 
BRANCH  19  20
HETATM   20  C3  0Q4 A 125      -7.242  16.982  30.637  1.00 15.06     0.241 C 
HETATM   21  O2  0Q4 A 125      -6.746  18.096  30.823  1.00 12.51    -0.271 OA
HETATM   22  N4  0Q4 A 125      -7.564  16.528  29.425  1.00 14.54    -0.346 N 
HETATM   23  H4  0Q4 A 125      -7.961  15.635  29.326  1.00 15.00     0.163 HD
BRANCH  22  24
HETATM   24  CA4 0Q4 A 125      -7.401  17.323  28.205  1.00 15.81     0.177 C 
BRANCH  24  25
HETATM   25  C4  0Q4 A 125      -8.694  17.670  27.461  1.00 17.52     0.241 C 
HETATM   26  O3  0Q4 A 125      -8.693  18.033  26.282  1.00 17.50    -0.271 OA
HETATM   27  N5  0Q4 A 125      -9.786  17.709  28.206  1.00 19.61    -0.346 N 
HETATM   28  H5  0Q4 A 125      -9.737  17.525  29.170  1.00 15.00     0.163 HD
BRANCH  27  29
HETATM   29  CA5 0Q4 A 125     -11.074  18.019  27.623  1.00 21.82     0.172 C 
HETATM   30  CB5 0Q4 A 125     -12.073  16.978  28.089  1.00 22.24     0.042 C 
BRANCH  29  31
HETATM   31  C5  0Q4 A 125     -11.643  19.433  27.900  1.00 24.09     0.240 C 
HETATM   32  O4  0Q4 A 125     -11.285  20.418  27.250  1.00 20.88    -0.271 OA
HETATM   33  N6  0Q4 A 125     -12.493  19.500  28.919  1.00 27.66    -0.346 N 
HETATM   34  H6  0Q4 A 125     -12.690  18.679  29.402  1.00 15.00     0.163 HD
BRANCH  33  35
HETATM   35  CA6 0Q4 A 125     -13.084  20.738  29.408  1.00 31.09     0.176 C 
BRANCH  35  36
HETATM   36  C6  0Q4 A 125     -13.172  20.593  30.937  1.00 33.78     0.238 C 
HETATM   37  O5  0Q4 A 125     -13.287  21.618  31.671  1.00 34.60    -0.271 OA
HETATM   38  N7  0Q4 A 125     -13.090  19.425  31.391  1.00 36.53    -0.368 N 
HETATM   39  H72 0Q4 A 125     -12.998  18.599  30.800  1.00  0.00     0.159 HD
HETATM   40  H71 0Q4 A 125     -13.148  19.330  32.404  1.00  0.00     0.159 HD
ENDBRANCH  35  36
BRANCH  35  41
HETATM   41  CB6 0Q4 A 125     -14.506  20.883  28.806  1.00 32.55     0.035 C 
BRANCH  41  42
HETATM   42  CG6 0Q4 A 125     -14.895  19.932  27.621  1.00 32.73     0.002 C 
BRANCH  42  43
HETATM   43  CD4 0Q4 A 125     -14.875  20.613  26.196  1.00 31.59    -0.004 C 
HETATM   44  CE  0Q4 A 125     -14.350  22.031  26.280  1.00 23.29     0.005 C 
ENDBRANCH  42  43
ENDBRANCH  41  42
ENDBRANCH  35  41
ENDBRANCH  33  35
ENDBRANCH  29  31
ENDBRANCH  27  29
ENDBRANCH  24  25
BRANCH  24  45
HETATM   45  CB4 0Q4 A 125      -6.427  16.588  27.242  1.00 17.07     0.045 C 
BRANCH  45  46
HETATM   46  CG5 0Q4 A 125      -5.714  15.360  27.776  1.00 18.50     0.116 C 
BRANCH  46  47
HETATM   47  CD3 0Q4 A 125      -4.429  15.696  28.547  1.00 26.68     0.172 C 
HETATM   48  OE1 0Q4 A 125      -3.338  15.622  27.950  1.00 29.71    -0.648 OA
HETATM   49  OE2 0Q4 A 125      -4.490  16.042  29.756  1.00 31.35    -0.648 OA
ENDBRANCH  46  47
ENDBRANCH  45  46
ENDBRANCH  24  45
ENDBRANCH  22  24
ENDBRANCH  19  20
BRANCH  19  50
HETATM   50  CB3 0Q4 A 125      -8.485  16.330  32.876  1.00 18.22     0.073 C 
BRANCH  50  51
HETATM   51  CG4 0Q4 A 125      -9.642  15.412  32.910  1.00 21.59    -0.056 A 
HETATM   52  CD1 0Q4 A 125      -9.480  14.082  33.271  1.00 22.99     0.007 A 
HETATM   53  CE1 0Q4 A 125     -10.589  13.207  33.350  1.00 24.00     0.001 A 
HETATM   54  CZ1 0Q4 A 125     -11.875  13.672  33.055  1.00 25.64     0.000 A 
HETATM   55  CE2 0Q4 A 125     -12.050  15.004  32.682  1.00 27.27     0.001 A 
HETATM   56  CD2 0Q4 A 125     -10.920  15.874  32.611  1.00 24.65     0.007 A 
ENDBRANCH  50  51
ENDBRANCH  19  50
ENDBRANCH  17  19
ENDBRANCH  15  16
BRANCH  15  57
HETATM   57  CB2 0Q4 A 125      -4.449  16.889  35.730  1.00 19.32     0.034 C 
BRANCH  57  58
HETATM   58  CG3 0Q4 A 125      -5.029  15.809  36.686  1.00 21.12    -0.020 C 
HETATM   59  CD1 0Q4 A 125      -4.056  15.404  37.793  1.00 21.22     0.009 C 
HETATM   60  CD2 0Q4 A 125      -6.327  16.301  37.298  1.00 17.47     0.009 C 
ENDBRANCH  57  58
ENDBRANCH  15  57
ENDBRANCH  13  15
ENDBRANCH  10  11
BRANCH  10  61
HETATM   61  CB1 0Q4 A 125      -1.340  17.300  30.513  1.00 19.28     0.009 C 
HETATM   62  CG1 0Q4 A 125      -1.755  18.605  29.829  1.00 20.08     0.012 C 
HETATM   63  CG2 0Q4 A 125       0.102  16.977  30.072  1.00 19.54     0.012 C 
ENDBRANCH  10  61
ENDBRANCH   8  10
ENDBRANCH   5   6
BRANCH   5  64
HETATM   64  CB  0Q4 A 125       2.311  15.888  33.574  1.00 21.80     0.044 C 
BRANCH  64  65
HETATM   65  CG  0Q4 A 125       3.872  16.032  33.575  1.00 26.69     0.023 C 
BRANCH  65  66
HETATM   66  CD  0Q4 A 125       4.498  16.741  32.323  1.00 29.76     0.138 C 
BRANCH  66  67
HETATM   67  NE  0Q4 A 125       4.952  15.832  31.261  1.00 32.26    -0.227 N 
HETATM   68  CZ  0Q4 A 125       4.564  15.899  29.986  1.00 34.72     0.665 C 
HETATM   69  NH1 0Q4 A 125       3.724  16.850  29.611  1.00 35.07    -0.235 N 
HETATM   70  NH2 0Q4 A 125       4.915  14.945  29.110  1.00 35.86    -0.235 N 
HETATM   71 HH11 0Q4 A 125       3.388  17.514  30.277  1.00 15.00     0.174 HD
HETATM   72 HH12 0Q4 A 125       3.427  16.909  28.657  1.00 15.00     0.174 HD
HETATM   73 HH21 0Q4 A 125       5.474  14.171  29.400  1.00 15.00     0.174 HD
HETATM   74 HH22 0Q4 A 125       4.610  15.016  28.158  1.00 15.00     0.174 HD
HETATM   75  HE  0Q4 A 125       5.585  15.117  31.496  1.00 15.00     0.177 HD
ENDBRANCH  66  67
ENDBRANCH  65  66
ENDBRANCH  64  65
ENDBRANCH   5  64
ENDBRANCH   1   5
TORSDOF 29
ENDMDL
MODEL 15
REMARK VINA RESULT:      -7.1      2.860      5.646
REMARK  29 active torsions:
REMARK  status: ('A' for Active; 'I' for Inactive)
REMARK    1  A    between atoms: N_1  and  CA_2 
REMARK    2  A    between atoms: CA_2  and  C_4 
REMARK    3  A    between atoms: CA_2  and  CB_6 
REMARK       I    between atoms: C_4  and  N1_19 
REMARK    4  A    between atoms: CB_6  and  CG_9 
REMARK    5  A    between atoms: CG_9  and  CD_12 
REMARK    6  A    between atoms: CD_12  and  NE_15 
REMARK       I    between atoms: NE_15  and  CZ_16 
REMARK       I    between atoms: CZ_16  and  NH1_17 
REMARK    7  A    between atoms: N1_19  and  CA1_20 
REMARK    8  A    between atoms: CA1_20  and  C1_22 
REMARK    9  A    between atoms: CA1_20  and  CB1_24 
REMARK       I    between atoms: C1_22  and  N2_34 
REMARK   10  A    between atoms: N2_34  and  CA2_35 
REMARK   11  A    between atoms: CA2_35  and  C2_37 
REMARK   12  A    between atoms: CA2_35  and  CB2_39 
REMARK   13  A    between atoms: CB2_39  and  CG3_42 
REMARK   14  A    between atoms: N3_52  and  CA3_53 
REMARK   15  A    between atoms: CA3_53  and  C3_55 
REMARK   16  A    between atoms: CA3_53  and  CB3_57 
REMARK       I    between atoms: C3_55  and  N4_71 
REMARK   17  A    between atoms: CB3_57  and  CG4_60 
REMARK   18  A    between atoms: N4_71  and  CA4_72 
REMARK   19  A    between atoms: CA4_72  and  C4_74 
REMARK   20  A    between atoms: CA4_72  and  CB4_76 
REMARK       I    between atoms: C4_74  and  N5_85 
REMARK   21  A    between atoms: CB4_76  and  CG5_79 
REMARK   22  A    between atoms: CG5_79  and  CD3_82 
REMARK   23  A    between atoms: N5_85  and  CA5_86 
REMARK   24  A    between atoms: CA5_86  and  C5_88 
REMARK       I    between atoms: C5_88  and  N6_94 
REMARK   25  A    between atoms: N6_94  and  CA6_95 
REMARK   26  A    between atoms: CA6_95  and  C6_97 
REMARK   27  A    between atoms: CA6_95  and  CB6_99 
REMARK       I    between atoms: C6_97  and  N7_112 
REMARK   28  A    between atoms: CB6_99  and  CG6_102 
REMARK   29  A    between atoms: CG6_102  and  CD4_105 
ROOT
HETATM    1  N   0Q4 A 125     -11.890  16.981  32.942  1.00 21.27    -0.067 N 
HETATM    2  H   0Q4 A 125     -11.027  17.077  33.495  1.00 15.00     0.275 HD
HETATM    3  H2  0Q4 A 125     -11.794  16.215  32.229  1.00 15.00     0.275 HD
HETATM    4  HN3 0Q4 A 125     -12.083  17.878  32.469  1.00 15.00     0.275 HD
ENDROOT
BRANCH   1   5
HETATM    5  CA  0Q4 A 125     -13.047  16.587  33.804  1.00 21.76     0.274 C 
BRANCH   5   6
HETATM    6  C   0Q4 A 125     -13.665  15.264  33.249  1.00 21.89     0.249 C 
HETATM    7  O   0Q4 A 125     -14.328  14.518  33.995  1.00 22.48    -0.271 OA
HETATM    8  N1  0Q4 A 125     -13.503  15.022  31.938  1.00 19.10    -0.346 N 
HETATM    9  H1  0Q4 A 125     -12.965  15.616  31.372  1.00 15.00     0.163 HD
BRANCH   8  10
HETATM   10  CA1 0Q4 A 125     -14.071  13.855  31.260  1.00 18.90     0.180 C 
BRANCH  10  11
HETATM   11  C1  0Q4 A 125     -13.161  13.349  30.111  1.00 17.14     0.241 C 
HETATM   12  O1  0Q4 A 125     -12.798  12.183  30.022  1.00 18.87    -0.271 OA
HETATM   13  N2  0Q4 A 125     -12.696  14.273  29.289  1.00 17.78    -0.350 N 
HETATM   14  HN2 0Q4 A 125     -12.930  15.217  29.432  1.00 15.00     0.163 HD
BRANCH  13  15
HETATM   15  CA2 0Q4 A 125     -11.890  13.913  28.137  1.00 17.96     0.123 C 
BRANCH  15  16
HETATM   16  C2  0Q4 A 125     -10.642  14.751  27.894  1.00 17.56     0.081 C 
HETATM   17  N3  0Q4 A 125      -9.788  14.814  28.900  1.00 16.64    -0.387 N 
HETATM   18  H3  0Q4 A 125     -10.012  14.337  29.722  1.00 15.00     0.159 HD
BRANCH  17  19
HETATM   19  CA3 0Q4 A 125      -8.513  15.537  28.838  1.00 16.89     0.177 C 
BRANCH  19  20
HETATM   20  C3  0Q4 A 125      -7.972  15.546  30.295  1.00 15.06     0.241 C 
HETATM   21  O2  0Q4 A 125      -6.871  15.054  30.551  1.00 12.51    -0.271 OA
HETATM   22  N4  0Q4 A 125      -8.699  16.203  31.201  1.00 14.54    -0.346 N 
HETATM   23  H4  0Q4 A 125      -9.573  16.573  30.952  1.00 15.00     0.163 HD
BRANCH  22  24
HETATM   24  CA4 0Q4 A 125      -8.280  16.365  32.596  1.00 15.81     0.177 C 
BRANCH  24  25
HETATM   25  C4  0Q4 A 125      -6.949  17.092  32.810  1.00 17.52     0.241 C 
HETATM   26  O3  0Q4 A 125      -6.696  18.167  32.262  1.00 17.50    -0.271 OA
HETATM   27  N5  0Q4 A 125      -6.035  16.417  33.487  1.00 19.61    -0.346 N 
HETATM   28  H5  0Q4 A 125      -6.227  15.511  33.816  1.00 15.00     0.163 HD
BRANCH  27  29
HETATM   29  CA5 0Q4 A 125      -4.737  16.995  33.763  1.00 21.82     0.172 C 
HETATM   30  CB5 0Q4 A 125      -4.351  16.647  35.188  1.00 22.24     0.042 C 
BRANCH  29  31
HETATM   31  C5  0Q4 A 125      -3.581  16.601  32.810  1.00 24.09     0.240 C 
HETATM   32  O4  0Q4 A 125      -3.512  15.482  32.297  1.00 20.88    -0.271 OA
HETATM   33  N6  0Q4 A 125      -2.656  17.540  32.643  1.00 27.66    -0.346 N 
HETATM   34  H6  0Q4 A 125      -2.769  18.382  33.117  1.00 15.00     0.163 HD
BRANCH  33  35
HETATM   35  CA6 0Q4 A 125      -1.442  17.358  31.858  1.00 31.09     0.176 C 
BRANCH  35  36
HETATM   36  C6  0Q4 A 125      -0.275  17.747  32.782  1.00 33.78     0.238 C 
HETATM   37  O5  0Q4 A 125       0.280  16.875  33.513  1.00 34.60    -0.271 OA
HETATM   38  N7  0Q4 A 125       0.052  18.959  32.785  1.00 36.53    -0.368 N 
HETATM   39  H72 0Q4 A 125      -0.395  19.662  32.197  1.00  0.00     0.159 HD
HETATM   40  H71 0Q4 A 125       0.825  19.217  33.398  1.00  0.00     0.159 HD
ENDBRANCH  35  36
BRANCH  35  41
HETATM   41  CB6 0Q4 A 125      -1.490  18.311  30.636  1.00 32.55     0.035 C 
BRANCH  41  42
HETATM   42  CG6 0Q4 A 125      -2.573  18.029  29.536  1.00 32.73     0.002 C 
BRANCH  42  43
HETATM   43  CD4 0Q4 A 125      -2.513  16.581  28.909  1.00 31.59    -0.004 C 
HETATM   44  CE  0Q4 A 125      -3.898  15.974  28.810  1.00 23.29     0.005 C 
ENDBRANCH  42  43
ENDBRANCH  41  42
ENDBRANCH  35  41
ENDBRANCH  33  35
ENDBRANCH  29  31
ENDBRANCH  27  29
ENDBRANCH  24  25
BRANCH  24  45
HETATM   45  CB4 0Q4 A 125      -8.227  14.969  33.279  1.00 17.07     0.045 C 
BRANCH  45  46
HETATM   46  CG5 0Q4 A 125      -9.502  14.462  33.926  1.00 18.50     0.116 C 
BRANCH  46  47
HETATM   47  CD3 0Q4 A 125     -10.391  13.663  32.961  1.00 26.68     0.172 C 
HETATM   48  OE1 0Q4 A 125     -10.587  14.114  31.817  1.00 29.71    -0.648 OA
HETATM   49  OE2 0Q4 A 125     -10.905  12.574  33.330  1.00 31.35    -0.648 OA
ENDBRANCH  46  47
ENDBRANCH  45  46
ENDBRANCH  24  45
ENDBRANCH  22  24
ENDBRANCH  19  20
BRANCH  19  50
HETATM   50  CB3 0Q4 A 125      -8.806  16.930  28.204  1.00 18.22     0.073 C 
BRANCH  50  51
HETATM   51  CG4 0Q4 A 125      -7.617  17.669  27.729  1.00 21.59    -0.056 A 
HETATM   52  CD1 0Q4 A 125      -7.048  18.668  28.506  1.00 22.99     0.007 A 
HETATM   53  CE1 0Q4 A 125      -5.884  19.349  28.080  1.00 24.00     0.001 A 
HETATM   54  CZ1 0Q4 A 125      -5.289  19.029  26.855  1.00 25.64     0.000 A 
HETATM   55  CE2 0Q4 A 125      -5.858  18.034  26.060  1.00 27.27     0.001 A 
HETATM   56  CD2 0Q4 A 125      -7.030  17.354  26.508  1.00 24.65     0.007 A 
ENDBRANCH  50  51
ENDBRANCH  19  50
ENDBRANCH  17  19
ENDBRANCH  15  16
BRANCH  15  57
HETATM   57  CB2 0Q4 A 125     -12.789  13.826  26.880  1.00 19.32     0.034 C 
BRANCH  57  58
HETATM   58  CG3 0Q4 A 125     -13.067  15.181  26.170  1.00 21.12    -0.020 C 
HETATM   59  CD1 0Q4 A 125     -13.704  15.014  24.790  1.00 21.22     0.009 C 
HETATM   60  CD2 0Q4 A 125     -13.953  16.052  27.042  1.00 17.47     0.009 C 
ENDBRANCH  57  58
ENDBRANCH  15  57
ENDBRANCH  13  15
ENDBRANCH  10  11
BRANCH  10  61
HETATM   61  CB1 0Q4 A 125     -15.592  14.158  30.811  1.00 19.28     0.009 C 
HETATM   62  CG1 0Q4 A 125     -15.758  15.588  30.293  1.00 20.08     0.012 C 
HETATM   63  CG2 0Q4 A 125     -16.029  13.198  29.686  1.00 19.54     0.012 C 
ENDBRANCH  10  61
ENDBRANCH   8  10
ENDBRANCH   5   6
BRANCH   5  64
HETATM   64  CB  0Q4 A 125     -14.054  17.744  33.849  1.00 21.80     0.044 C 
BRANCH  64  65
HETATM   65  CG  0Q4 A 125     -14.474  18.371  32.476  1.00 26.69     0.023 C 
BRANCH  65  66
HETATM   66  CD  0Q4 A 125     -13.898  19.797  32.165  1.00 29.76     0.138 C 
BRANCH  66  67
HETATM   67  NE  0Q4 A 125     -14.264  20.337  30.849  1.00 32.26    -0.227 N 
HETATM   68  CZ  0Q4 A 125     -13.558  21.252  30.179  1.00 34.72     0.665 C 
HETATM   69  NH1 0Q4 A 125     -12.434  21.714  30.701  1.00 35.07    -0.235 N 
HETATM   70  NH2 0Q4 A 125     -14.034  21.795  29.049  1.00 35.86    -0.235 N 
HETATM   71 HH11 0Q4 A 125     -12.115  21.378  31.585  1.00 15.00     0.174 HD
HETATM   72 HH12 0Q4 A 125     -11.897  22.400  30.206  1.00 15.00     0.174 HD
HETATM   73 HH21 0Q4 A 125     -14.925  21.521  28.691  1.00 15.00     0.174 HD
HETATM   74 HH22 0Q4 A 125     -13.488  22.481  28.565  1.00 15.00     0.174 HD
HETATM   75  HE  0Q4 A 125     -15.087  20.011  30.422  1.00 15.00     0.177 HD
ENDBRANCH  66  67
ENDBRANCH  65  66
ENDBRANCH  64  65
ENDBRANCH   5  64
ENDBRANCH   1   5
TORSDOF 29
ENDMDL
MODEL 16
REMARK VINA RESULT:      -7.1      3.081      6.489
REMARK  29 active torsions:
REMARK  status: ('A' for Active; 'I' for Inactive)
REMARK    1  A    between atoms: N_1  and  CA_2 
REMARK    2  A    between atoms: CA_2  and  C_4 
REMARK    3  A    between atoms: CA_2  and  CB_6 
REMARK       I    between atoms: C_4  and  N1_19 
REMARK    4  A    between atoms: CB_6  and  CG_9 
REMARK    5  A    between atoms: CG_9  and  CD_12 
REMARK    6  A    between atoms: CD_12  and  NE_15 
REMARK       I    between atoms: NE_15  and  CZ_16 
REMARK       I    between atoms: CZ_16  and  NH1_17 
REMARK    7  A    between atoms: N1_19  and  CA1_20 
REMARK    8  A    between atoms: CA1_20  and  C1_22 
REMARK    9  A    between atoms: CA1_20  and  CB1_24 
REMARK       I    between atoms: C1_22  and  N2_34 
REMARK   10  A    between atoms: N2_34  and  CA2_35 
REMARK   11  A    between atoms: CA2_35  and  C2_37 
REMARK   12  A    between atoms: CA2_35  and  CB2_39 
REMARK   13  A    between atoms: CB2_39  and  CG3_42 
REMARK   14  A    between atoms: N3_52  and  CA3_53 
REMARK   15  A    between atoms: CA3_53  and  C3_55 
REMARK   16  A    between atoms: CA3_53  and  CB3_57 
REMARK       I    between atoms: C3_55  and  N4_71 
REMARK   17  A    between atoms: CB3_57  and  CG4_60 
REMARK   18  A    between atoms: N4_71  and  CA4_72 
REMARK   19  A    between atoms: CA4_72  and  C4_74 
REMARK   20  A    between atoms: CA4_72  and  CB4_76 
REMARK       I    between atoms: C4_74  and  N5_85 
REMARK   21  A    between atoms: CB4_76  and  CG5_79 
REMARK   22  A    between atoms: CG5_79  and  CD3_82 
REMARK   23  A    between atoms: N5_85  and  CA5_86 
REMARK   24  A    between atoms: CA5_86  and  C5_88 
REMARK       I    between atoms: C5_88  and  N6_94 
REMARK   25  A    between atoms: N6_94  and  CA6_95 
REMARK   26  A    between atoms: CA6_95  and  C6_97 
REMARK   27  A    between atoms: CA6_95  and  CB6_99 
REMARK       I    between atoms: C6_97  and  N7_112 
REMARK   28  A    between atoms: CB6_99  and  CG6_102 
REMARK   29  A    between atoms: CG6_102  and  CD4_105 
ROOT
HETATM    1  N   0Q4 A 125     -12.281  21.598  30.908  1.00 21.27    -0.067 N 
HETATM    2  H   0Q4 A 125     -12.358  21.934  31.878  1.00 15.00     0.275 HD
HETATM    3  H2  0Q4 A 125     -11.393  21.053  30.769  1.00 15.00     0.275 HD
HETATM    4  HN3 0Q4 A 125     -12.295  22.412  30.273  1.00 15.00     0.275 HD
ENDROOT
BRANCH   1   5
HETATM    5  CA  0Q4 A 125     -13.391  20.655  30.569  1.00 21.76     0.274 C 
BRANCH   5   6
HETATM    6  C   0Q4 A 125     -13.556  19.627  31.734  1.00 21.89     0.249 C 
HETATM    7  O   0Q4 A 125     -14.045  19.983  32.822  1.00 22.48    -0.271 OA
HETATM    8  N1  0Q4 A 125     -13.215  18.355  31.472  1.00 19.10    -0.346 N 
HETATM    9  H1  0Q4 A 125     -12.818  18.099  30.612  1.00 15.00     0.163 HD
BRANCH   8  10
HETATM   10  CA1 0Q4 A 125     -13.365  17.268  32.442  1.00 18.90     0.180 C 
BRANCH  10  11
HETATM   11  C1  0Q4 A 125     -12.353  16.120  32.192  1.00 17.14     0.241 C 
HETATM   12  O1  0Q4 A 125     -12.148  15.232  33.010  1.00 18.87    -0.271 OA
HETATM   13  N2  0Q4 A 125     -11.628  16.214  31.091  1.00 17.78    -0.350 N 
HETATM   14  HN2 0Q4 A 125     -11.747  16.985  30.492  1.00 15.00     0.163 HD
BRANCH  13  15
HETATM   15  CA2 0Q4 A 125     -10.696  15.168  30.717  1.00 17.96     0.123 C 
BRANCH  15  16
HETATM   16  C2  0Q4 A 125      -9.287  15.278  31.286  1.00 17.56     0.081 C 
HETATM   17  N3  0Q4 A 125      -9.124  16.176  32.241  1.00 16.64    -0.387 N 
HETATM   18  H3  0Q4 A 125      -9.898  16.707  32.510  1.00 15.00     0.159 HD
BRANCH  17  19
HETATM   19  CA3 0Q4 A 125      -7.851  16.397  32.937  1.00 16.89     0.177 C 
BRANCH  19  20
HETATM   20  C3  0Q4 A 125      -6.795  16.594  31.815  1.00 15.06     0.241 C 
HETATM   21  O2  0Q4 A 125      -6.690  17.684  31.247  1.00 12.51    -0.271 OA
HETATM   22  N4  0Q4 A 125      -5.959  15.579  31.592  1.00 14.54    -0.346 N 
HETATM   23  H4  0Q4 A 125      -6.086  14.728  32.065  1.00 15.00     0.163 HD
BRANCH  22  24
HETATM   24  CA4 0Q4 A 125      -4.863  15.645  30.622  1.00 15.81     0.177 C 
BRANCH  24  25
HETATM   25  C4  0Q4 A 125      -3.617  16.411  31.078  1.00 17.52     0.241 C 
HETATM   26  O3  0Q4 A 125      -2.828  16.914  30.274  1.00 17.50    -0.271 OA
HETATM   27  N5  0Q4 A 125      -3.360  16.358  32.374  1.00 19.61    -0.346 N 
HETATM   28  H5  0Q4 A 125      -3.948  15.852  32.978  1.00 15.00     0.163 HD
BRANCH  27  29
HETATM   29  CA5 0Q4 A 125      -2.216  17.045  32.934  1.00 21.82     0.172 C 
HETATM   30  CB5 0Q4 A 125      -2.641  17.704  34.232  1.00 22.24     0.042 C 
BRANCH  29  31
HETATM   31  C5  0Q4 A 125      -0.945  16.195  33.184  1.00 24.09     0.240 C 
HETATM   32  O4  0Q4 A 125      -0.740  15.138  32.584  1.00 20.88    -0.271 OA
HETATM   33  N6  0Q4 A 125      -0.139  16.668  34.128  1.00 27.66    -0.346 N 
HETATM   34  H6  0Q4 A 125      -0.397  17.490  34.580  1.00 15.00     0.163 HD
BRANCH  33  35
HETATM   35  CA6 0Q4 A 125       1.067  15.990  34.585  1.00 31.09     0.176 C 
BRANCH  35  36
HETATM   36  C6  0Q4 A 125       0.926  15.853  36.111  1.00 33.78     0.238 C 
HETATM   37  O5  0Q4 A 125       1.356  14.820  36.703  1.00 34.60    -0.271 OA
HETATM   38  N7  0Q4 A 125       0.341  16.794  36.702  1.00 36.53    -0.368 N 
HETATM   39  H72 0Q4 A 125      -0.005  17.627  36.226  1.00  0.00     0.159 HD
HETATM   40  H71 0Q4 A 125       0.248  16.703  37.714  1.00  0.00     0.159 HD
ENDBRANCH  35  36
BRANCH  35  41
HETATM   41  CB6 0Q4 A 125       2.296  16.871  34.243  1.00 32.55     0.035 C 
BRANCH  41  42
HETATM   42  CG6 0Q4 A 125       2.242  17.712  32.920  1.00 32.73     0.002 C 
BRANCH  42  43
HETATM   43  CD4 0Q4 A 125       2.602  16.904  31.611  1.00 31.59    -0.004 C 
HETATM   44  CE  0Q4 A 125       3.954  16.233  31.742  1.00 23.29     0.005 C 
ENDBRANCH  42  43
ENDBRANCH  41  42
ENDBRANCH  35  41
ENDBRANCH  33  35
ENDBRANCH  29  31
ENDBRANCH  27  29
ENDBRANCH  24  25
BRANCH  24  45
HETATM   45  CB4 0Q4 A 125      -5.392  16.254  29.293  1.00 17.07     0.045 C 
BRANCH  45  46
HETATM   46  CG5 0Q4 A 125      -5.400  15.357  28.071  1.00 18.50     0.116 C 
BRANCH  46  47
HETATM   47  CD3 0Q4 A 125      -5.606  16.128  26.758  1.00 26.68     0.172 C 
HETATM   48  OE1 0Q4 A 125      -5.657  15.488  25.691  1.00 29.71    -0.648 OA
HETATM   49  OE2 0Q4 A 125      -5.722  17.382  26.773  1.00 31.35    -0.648 OA
ENDBRANCH  46  47
ENDBRANCH  45  46
ENDBRANCH  24  45
ENDBRANCH  22  24
ENDBRANCH  19  20
BRANCH  19  50
HETATM   50  CB3 0Q4 A 125      -7.630  15.180  33.886  1.00 18.22     0.073 C 
BRANCH  50  51
HETATM   51  CG4 0Q4 A 125      -6.909  15.482  35.140  1.00 21.59    -0.056 A 
HETATM   52  CD1 0Q4 A 125      -5.552  15.218  35.259  1.00 22.99     0.007 A 
HETATM   53  CE1 0Q4 A 125      -4.845  15.545  36.440  1.00 24.00     0.001 A 
HETATM   54  CZ1 0Q4 A 125      -5.512  16.137  37.518  1.00 25.64     0.000 A 
HETATM   55  CE2 0Q4 A 125      -6.878  16.397  37.415  1.00 27.27     0.001 A 
HETATM   56  CD2 0Q4 A 125      -7.574  16.065  36.214  1.00 24.65     0.007 A 
ENDBRANCH  50  51
ENDBRANCH  19  50
ENDBRANCH  17  19
ENDBRANCH  15  16
BRANCH  15  57
HETATM   57  CB2 0Q4 A 125     -10.692  15.001  29.178  1.00 19.32     0.034 C 
BRANCH  57  58
HETATM   58  CG3 0Q4 A 125      -9.473  15.629  28.446  1.00 21.12    -0.020 C 
HETATM   59  CD1 0Q4 A 125      -9.069  14.861  27.188  1.00 21.22     0.009 C 
HETATM   60  CD2 0Q4 A 125      -9.768  17.075  28.093  1.00 17.47     0.009 C 
ENDBRANCH  57  58
ENDBRANCH  15  57
ENDBRANCH  13  15
ENDBRANCH  10  11
BRANCH  10  61
HETATM   61  CB1 0Q4 A 125     -14.905  16.786  32.502  1.00 19.28     0.009 C 
HETATM   62  CG1 0Q4 A 125     -15.144  15.538  31.649  1.00 20.08     0.012 C 
HETATM   63  CG2 0Q4 A 125     -15.314  16.449  33.950  1.00 19.54     0.012 C 
ENDBRANCH  10  61
ENDBRANCH   8  10
ENDBRANCH   5   6
BRANCH   5  64
HETATM   64  CB  0Q4 A 125     -13.086  19.987  29.222  1.00 21.80     0.044 C 
BRANCH  64  65
HETATM   65  CG  0Q4 A 125     -11.871  20.554  28.409  1.00 26.69     0.023 C 
BRANCH  65  66
HETATM   66  CD  0Q4 A 125     -12.189  21.743  27.435  1.00 29.76     0.138 C 
BRANCH  66  67
HETATM   67  NE  0Q4 A 125     -12.246  21.378  26.014  1.00 32.26    -0.227 N 
HETATM   68  CZ  0Q4 A 125     -13.053  21.946  25.114  1.00 34.72     0.665 C 
HETATM   69  NH1 0Q4 A 125     -13.861  22.922  25.492  1.00 35.07    -0.235 N 
HETATM   70  NH2 0Q4 A 125     -13.143  21.459  23.867  1.00 35.86    -0.235 N 
HETATM   71 HH11 0Q4 A 125     -13.864  23.233  26.441  1.00 15.00     0.174 HD
HETATM   72 HH12 0Q4 A 125     -14.470  23.355  24.825  1.00 15.00     0.174 HD
HETATM   73 HH21 0Q4 A 125     -12.604  20.664  23.593  1.00 15.00     0.174 HD
HETATM   74 HH22 0Q4 A 125     -13.757  21.900  23.210  1.00 15.00     0.174 HD
HETATM   75  HE  0Q4 A 125     -11.652  20.664  25.690  1.00 15.00     0.177 HD
ENDBRANCH  66  67
ENDBRANCH  65  66
ENDBRANCH  64  65
ENDBRANCH   5  64
ENDBRANCH   1   5
TORSDOF 29
ENDMDL
MODEL 17
REMARK VINA RESULT:      -7.0      2.867      5.706
REMARK  29 active torsions:
REMARK  status: ('A' for Active; 'I' for Inactive)
REMARK    1  A    between atoms: N_1  and  CA_2 
REMARK    2  A    between atoms: CA_2  and  C_4 
REMARK    3  A    between atoms: CA_2  and  CB_6 
REMARK       I    between atoms: C_4  and  N1_19 
REMARK    4  A    between atoms: CB_6  and  CG_9 
REMARK    5  A    between atoms: CG_9  and  CD_12 
REMARK    6  A    between atoms: CD_12  and  NE_15 
REMARK       I    between atoms: NE_15  and  CZ_16 
REMARK       I    between atoms: CZ_16  and  NH1_17 
REMARK    7  A    between atoms: N1_19  and  CA1_20 
REMARK    8  A    between atoms: CA1_20  and  C1_22 
REMARK    9  A    between atoms: CA1_20  and  CB1_24 
REMARK       I    between atoms: C1_22  and  N2_34 
REMARK   10  A    between atoms: N2_34  and  CA2_35 
REMARK   11  A    between atoms: CA2_35  and  C2_37 
REMARK   12  A    between atoms: CA2_35  and  CB2_39 
REMARK   13  A    between atoms: CB2_39  and  CG3_42 
REMARK   14  A    between atoms: N3_52  and  CA3_53 
REMARK   15  A    between atoms: CA3_53  and  C3_55 
REMARK   16  A    between atoms: CA3_53  and  CB3_57 
REMARK       I    between atoms: C3_55  and  N4_71 
REMARK   17  A    between atoms: CB3_57  and  CG4_60 
REMARK   18  A    between atoms: N4_71  and  CA4_72 
REMARK   19  A    between atoms: CA4_72  and  C4_74 
REMARK   20  A    between atoms: CA4_72  and  CB4_76 
REMARK       I    between atoms: C4_74  and  N5_85 
REMARK   21  A    between atoms: CB4_76  and  CG5_79 
REMARK   22  A    between atoms: CG5_79  and  CD3_82 
REMARK   23  A    between atoms: N5_85  and  CA5_86 
REMARK   24  A    between atoms: CA5_86  and  C5_88 
REMARK       I    between atoms: C5_88  and  N6_94 
REMARK   25  A    between atoms: N6_94  and  CA6_95 
REMARK   26  A    between atoms: CA6_95  and  C6_97 
REMARK   27  A    between atoms: CA6_95  and  CB6_99 
REMARK       I    between atoms: C6_97  and  N7_112 
REMARK   28  A    between atoms: CB6_99  and  CG6_102 
REMARK   29  A    between atoms: CG6_102  and  CD4_105 
ROOT
HETATM    1  N   0Q4 A 125     -11.873  14.745  28.619  1.00 21.27    -0.067 N 
HETATM    2  H   0Q4 A 125     -12.506  15.462  28.999  1.00 15.00     0.275 HD
HETATM    3  H2  0Q4 A 125     -12.212  13.779  28.860  1.00 15.00     0.275 HD
HETATM    4  HN3 0Q4 A 125     -10.930  14.892  29.013  1.00 15.00     0.275 HD
ENDROOT
BRANCH   1   5
HETATM    5  CA  0Q4 A 125     -11.827  14.795  27.125  1.00 21.76     0.274 C 
BRANCH   5   6
HETATM    6  C   0Q4 A 125     -10.741  13.793  26.618  1.00 21.89     0.249 C 
HETATM    7  O   0Q4 A 125     -11.022  12.590  26.454  1.00 22.48    -0.271 OA
HETATM    8  N1  0Q4 A 125      -9.540  14.306  26.308  1.00 19.10    -0.346 N 
HETATM    9  H1  0Q4 A 125      -9.335  15.254  26.458  1.00 15.00     0.163 HD
BRANCH   8  10
HETATM   10  CA1 0Q4 A 125      -8.440  13.506  25.767  1.00 18.90     0.180 C 
BRANCH  10  11
HETATM   11  C1  0Q4 A 125      -7.240  13.428  26.747  1.00 17.14     0.241 C 
HETATM   12  O1  0Q4 A 125      -6.596  12.400  26.920  1.00 18.87    -0.271 OA
HETATM   13  N2  0Q4 A 125      -7.018  14.504  27.480  1.00 17.78    -0.350 N 
HETATM   14  HN2 0Q4 A 125      -7.604  15.288  27.388  1.00 15.00     0.163 HD
BRANCH  13  15
HETATM   15  CA2 0Q4 A 125      -5.885  14.574  28.384  1.00 17.96     0.123 C 
BRANCH  15  16
HETATM   16  C2  0Q4 A 125      -6.178  15.031  29.807  1.00 17.56     0.081 C 
HETATM   17  N3  0Q4 A 125      -7.420  15.415  30.040  1.00 16.64    -0.387 N 
HETATM   18  H3  0Q4 A 125      -8.056  15.392  29.299  1.00 15.00     0.159 HD
BRANCH  17  19
HETATM   19  CA3 0Q4 A 125      -7.901  15.847  31.358  1.00 16.89     0.177 C 
BRANCH  19  20
HETATM   20  C3  0Q4 A 125      -6.740  16.679  31.969  1.00 15.06     0.241 C 
HETATM   21  O2  0Q4 A 125      -6.726  17.907  31.850  1.00 12.51    -0.271 OA
HETATM   22  N4  0Q4 A 125      -5.849  16.014  32.707  1.00 14.54    -0.346 N 
HETATM   23  H4  0Q4 A 125      -5.897  15.035  32.767  1.00 15.00     0.163 HD
BRANCH  22  24
HETATM   24  CA4 0Q4 A 125      -4.745  16.672  33.410  1.00 15.81     0.177 C 
BRANCH  24  25
HETATM   25  C4  0Q4 A 125      -3.358  16.493  32.784  1.00 17.52     0.241 C 
HETATM   26  O3  0Q4 A 125      -3.088  15.536  32.056  1.00 17.50    -0.271 OA
HETATM   27  N5  0Q4 A 125      -2.432  17.340  33.203  1.00 19.61    -0.346 N 
HETATM   28  H5  0Q4 A 125      -2.651  18.025  33.873  1.00 15.00     0.163 HD
BRANCH  27  29
HETATM   29  CA5 0Q4 A 125      -1.083  17.282  32.685  1.00 21.82     0.172 C 
HETATM   30  CB5 0Q4 A 125      -0.538  18.695  32.606  1.00 22.24     0.042 C 
BRANCH  29  31
HETATM   31  C5  0Q4 A 125      -0.077  16.389  33.455  1.00 24.09     0.240 C 
HETATM   32  O4  0Q4 A 125      -0.151  15.159  33.436  1.00 20.88    -0.271 OA
HETATM   33  N6  0Q4 A 125       0.821  17.056  34.171  1.00 27.66    -0.346 N 
HETATM   34  H6  0Q4 A 125       0.784  18.028  34.159  1.00 15.00     0.163 HD
BRANCH  33  35
HETATM   35  CA6 0Q4 A 125       1.808  16.423  35.036  1.00 31.09     0.176 C 
BRANCH  35  36
HETATM   36  C6  0Q4 A 125       1.860  17.273  36.316  1.00 33.78     0.238 C 
HETATM   37  O5  0Q4 A 125       1.808  16.720  37.454  1.00 34.60    -0.271 OA
HETATM   38  N7  0Q4 A 125       1.920  18.517  36.156  1.00 36.53    -0.368 N 
HETATM   39  H72 0Q4 A 125       1.963  18.963  35.240  1.00  0.00     0.159 HD
HETATM   40  H71 0Q4 A 125       1.955  19.081  37.005  1.00  0.00     0.159 HD
ENDBRANCH  35  36
BRANCH  35  41
HETATM   41  CB6 0Q4 A 125       3.186  16.450  34.325  1.00 32.55     0.035 C 
BRANCH  41  42
HETATM   42  CG6 0Q4 A 125       3.263  15.875  32.867  1.00 32.73     0.002 C 
BRANCH  42  43
HETATM   43  CD4 0Q4 A 125       3.747  16.910  31.776  1.00 31.59    -0.004 C 
HETATM   44  CE  0Q4 A 125       3.088  16.638  30.439  1.00 23.29     0.005 C 
ENDBRANCH  42  43
ENDBRANCH  41  42
ENDBRANCH  35  41
ENDBRANCH  33  35
ENDBRANCH  29  31
ENDBRANCH  27  29
ENDBRANCH  24  25
BRANCH  24  45
HETATM   45  CB4 0Q4 A 125      -4.717  16.185  34.887  1.00 17.07     0.045 C 
BRANCH  45  46
HETATM   46  CG5 0Q4 A 125      -6.018  15.675  35.476  1.00 18.50     0.116 C 
BRANCH  46  47
HETATM   47  CD3 0Q4 A 125      -6.852  16.780  36.143  1.00 26.68     0.172 C 
HETATM   48  OE1 0Q4 A 125      -7.300  16.581  37.287  1.00 29.71    -0.648 OA
HETATM   49  OE2 0Q4 A 125      -7.068  17.862  35.535  1.00 31.35    -0.648 OA
ENDBRANCH  46  47
ENDBRANCH  45  46
ENDBRANCH  24  45
ENDBRANCH  22  24
ENDBRANCH  19  20
BRANCH  19  50
HETATM   50  CB3 0Q4 A 125      -8.315  14.564  32.139  1.00 18.22     0.073 C 
BRANCH  50  51
HETATM   51  CG4 0Q4 A 125      -9.715  14.538  32.612  1.00 21.59    -0.056 A 
HETATM   52  CD1 0Q4 A 125     -10.158  13.532  33.460  1.00 22.99     0.007 A 
HETATM   53  CE1 0Q4 A 125     -11.483  13.524  33.953  1.00 24.00     0.001 A 
HETATM   54  CZ1 0Q4 A 125     -12.377  14.536  33.586  1.00 25.64     0.000 A 
HETATM   55  CE2 0Q4 A 125     -11.948  15.547  32.728  1.00 27.27     0.001 A 
HETATM   56  CD2 0Q4 A 125     -10.605  15.541  32.242  1.00 24.65     0.007 A 
ENDBRANCH  50  51
ENDBRANCH  19  50
ENDBRANCH  17  19
ENDBRANCH  15  16
BRANCH  15  57
HETATM   57  CB2 0Q4 A 125      -4.749  15.398  27.729  1.00 19.32     0.034 C 
BRANCH  57  58
HETATM   58  CG3 0Q4 A 125      -3.839  16.176  28.721  1.00 21.12    -0.020 C 
HETATM   59  CD1 0Q4 A 125      -2.361  15.807  28.593  1.00 21.22     0.009 C 
HETATM   60  CD2 0Q4 A 125      -4.015  17.670  28.523  1.00 17.47     0.009 C 
ENDBRANCH  57  58
ENDBRANCH  15  57
ENDBRANCH  13  15
ENDBRANCH  10  11
BRANCH  10  61
HETATM   61  CB1 0Q4 A 125      -8.049  14.023  24.289  1.00 19.28     0.009 C 
HETATM   62  CG1 0Q4 A 125      -9.103  13.628  23.251  1.00 20.08     0.012 C 
HETATM   63  CG2 0Q4 A 125      -7.921  15.560  24.265  1.00 19.54     0.012 C 
ENDBRANCH  10  61
ENDBRANCH   8  10
ENDBRANCH   5   6
BRANCH   5  64
HETATM   64  CB  0Q4 A 125     -11.562  16.239  26.681  1.00 21.80     0.044 C 
BRANCH  64  65
HETATM   65  CG  0Q4 A 125     -11.712  17.355  27.771  1.00 26.69     0.023 C 
BRANCH  65  66
HETATM   66  CD  0Q4 A 125     -10.550  18.406  27.845  1.00 29.76     0.138 C 
BRANCH  66  67
HETATM   67  NE  0Q4 A 125      -9.325  18.023  27.130  1.00 32.26    -0.227 N 
HETATM   68  CZ  0Q4 A 125      -8.088  18.154  27.616  1.00 34.72     0.665 C 
HETATM   69  NH1 0Q4 A 125      -7.917  18.645  28.832  1.00 35.07    -0.235 N 
HETATM   70  NH2 0Q4 A 125      -7.017  17.912  26.845  1.00 35.86    -0.235 N 
HETATM   71 HH11 0Q4 A 125      -8.707  18.911  29.382  1.00 15.00     0.174 HD
HETATM   72 HH12 0Q4 A 125      -6.994  18.748  29.207  1.00 15.00     0.174 HD
HETATM   73 HH21 0Q4 A 125      -7.131  17.627  25.895  1.00 15.00     0.174 HD
HETATM   74 HH22 0Q4 A 125      -6.099  18.019  27.232  1.00 15.00     0.174 HD
HETATM   75  HE  0Q4 A 125      -9.409  17.644  26.227  1.00 15.00     0.177 HD
ENDBRANCH  66  67
ENDBRANCH  65  66
ENDBRANCH  64  65
ENDBRANCH   5  64
ENDBRANCH   1   5
TORSDOF 29
ENDMDL
MODEL 18
REMARK VINA RESULT:      -7.0      2.631      5.120
REMARK  29 active torsions:
REMARK  status: ('A' for Active; 'I' for Inactive)
REMARK    1  A    between atoms: N_1  and  CA_2 
REMARK    2  A    between atoms: CA_2  and  C_4 
REMARK    3  A    between atoms: CA_2  and  CB_6 
REMARK       I    between atoms: C_4  and  N1_19 
REMARK    4  A    between atoms: CB_6  and  CG_9 
REMARK    5  A    between atoms: CG_9  and  CD_12 
REMARK    6  A    between atoms: CD_12  and  NE_15 
REMARK       I    between atoms: NE_15  and  CZ_16 
REMARK       I    between atoms: CZ_16  and  NH1_17 
REMARK    7  A    between atoms: N1_19  and  CA1_20 
REMARK    8  A    between atoms: CA1_20  and  C1_22 
REMARK    9  A    between atoms: CA1_20  and  CB1_24 
REMARK       I    between atoms: C1_22  and  N2_34 
REMARK   10  A    between atoms: N2_34  and  CA2_35 
REMARK   11  A    between atoms: CA2_35  and  C2_37 
REMARK   12  A    between atoms: CA2_35  and  CB2_39 
REMARK   13  A    between atoms: CB2_39  and  CG3_42 
REMARK   14  A    between atoms: N3_52  and  CA3_53 
REMARK   15  A    between atoms: CA3_53  and  C3_55 
REMARK   16  A    between atoms: CA3_53  and  CB3_57 
REMARK       I    between atoms: C3_55  and  N4_71 
REMARK   17  A    between atoms: CB3_57  and  CG4_60 
REMARK   18  A    between atoms: N4_71  and  CA4_72 
REMARK   19  A    between atoms: CA4_72  and  C4_74 
REMARK   20  A    between atoms: CA4_72  and  CB4_76 
REMARK       I    between atoms: C4_74  and  N5_85 
REMARK   21  A    between atoms: CB4_76  and  CG5_79 
REMARK   22  A    between atoms: CG5_79  and  CD3_82 
REMARK   23  A    between atoms: N5_85  and  CA5_86 
REMARK   24  A    between atoms: CA5_86  and  C5_88 
REMARK       I    between atoms: C5_88  and  N6_94 
REMARK   25  A    between atoms: N6_94  and  CA6_95 
REMARK   26  A    between atoms: CA6_95  and  C6_97 
REMARK   27  A    between atoms: CA6_95  and  CB6_99 
REMARK       I    between atoms: C6_97  and  N7_112 
REMARK   28  A    between atoms: CB6_99  and  CG6_102 
REMARK   29  A    between atoms: CG6_102  and  CD4_105 
ROOT
HETATM    1  N   0Q4 A 125     -12.630  17.641  30.732  1.00 21.27    -0.067 N 
HETATM    2  H   0Q4 A 125     -12.327  17.034  31.507  1.00 15.00     0.275 HD
HETATM    3  H2  0Q4 A 125     -11.812  17.925  30.137  1.00 15.00     0.275 HD
HETATM    4  HN3 0Q4 A 125     -13.084  18.480  31.127  1.00 15.00     0.275 HD
ENDROOT
BRANCH   1   5
HETATM    5  CA  0Q4 A 125     -13.568  16.925  29.813  1.00 21.76     0.274 C 
BRANCH   5   6
HETATM    6  C   0Q4 A 125     -12.745  16.277  28.654  1.00 21.89     0.249 C 
HETATM    7  O   0Q4 A 125     -12.943  15.091  28.329  1.00 22.48    -0.271 OA
HETATM    8  N1  0Q4 A 125     -11.886  17.076  28.000  1.00 19.10    -0.346 N 
HETATM    9  H1  0Q4 A 125     -11.736  18.004  28.282  1.00 15.00     0.163 HD
BRANCH   8  10
HETATM   10  CA1 0Q4 A 125     -11.087  16.630  26.857  1.00 18.90     0.180 C 
BRANCH  10  11
HETATM   11  C1  0Q4 A 125      -9.745  15.992  27.299  1.00 17.14     0.241 C 
HETATM   12  O1  0Q4 A 125      -9.486  14.809  27.117  1.00 18.87    -0.271 OA
HETATM   13  N2  0Q4 A 125      -8.933  16.769  27.993  1.00 17.78    -0.350 N 
HETATM   14  HN2 0Q4 A 125      -9.201  17.692  28.205  1.00 15.00     0.163 HD
BRANCH  13  15
HETATM   15  CA2 0Q4 A 125      -7.621  16.305  28.404  1.00 17.96     0.123 C 
BRANCH  15  16
HETATM   16  C2  0Q4 A 125      -7.453  15.964  29.879  1.00 17.56     0.081 C 
HETATM   17  N3  0Q4 A 125      -8.366  16.465  30.691  1.00 16.64    -0.387 N 
HETATM   18  H3  0Q4 A 125      -9.071  17.018  30.303  1.00 15.00     0.159 HD
BRANCH  17  19
HETATM   19  CA3 0Q4 A 125      -8.394  16.211  32.136  1.00 16.89     0.177 C 
BRANCH  19  20
HETATM   20  C3  0Q4 A 125      -7.063  16.797  32.683  1.00 15.06     0.241 C 
HETATM   21  O2  0Q4 A 125      -6.850  18.011  32.627  1.00 12.51    -0.271 OA
HETATM   22  N4  0Q4 A 125      -6.243  15.948  33.303  1.00 14.54    -0.346 N 
HETATM   23  H4  0Q4 A 125      -6.451  14.988  33.317  1.00 15.00     0.163 HD
BRANCH  22  24
HETATM   24  CA4 0Q4 A 125      -4.990  16.366  33.939  1.00 15.81     0.177 C 
BRANCH  24  25
HETATM   25  C4  0Q4 A 125      -3.738  16.277  33.061  1.00 17.52     0.241 C 
HETATM   26  O3  0Q4 A 125      -3.643  15.465  32.139  1.00 17.50    -0.271 OA
HETATM   27  N5  0Q4 A 125      -2.713  17.013  33.458  1.00 19.61    -0.346 N 
HETATM   28  H5  0Q4 A 125      -2.781  17.568  34.266  1.00 15.00     0.163 HD
BRANCH  27  29
HETATM   29  CA5 0Q4 A 125      -1.473  17.024  32.712  1.00 21.82     0.172 C 
HETATM   30  CB5 0Q4 A 125      -0.974  18.455  32.631  1.00 22.24     0.042 C 
BRANCH  29  31
HETATM   31  C5  0Q4 A 125      -0.334  16.115  33.238  1.00 24.09     0.240 C 
HETATM   32  O4  0Q4 A 125      -0.307  14.904  33.008  1.00 20.88    -0.271 OA
HETATM   33  N6  0Q4 A 125       0.565  16.735  33.996  1.00 27.66    -0.346 N 
HETATM   34  H6  0Q4 A 125       0.446  17.686  34.159  1.00 15.00     0.163 HD
BRANCH  33  35
HETATM   35  CA6 0Q4 A 125       1.671  16.062  34.663  1.00 31.09     0.176 C 
BRANCH  35  36
HETATM   36  C6  0Q4 A 125       1.913  16.834  35.971  1.00 33.78     0.238 C 
HETATM   37  O5  0Q4 A 125       2.015  16.215  37.070  1.00 34.60    -0.271 OA
HETATM   38  N7  0Q4 A 125       1.966  18.085  35.876  1.00 36.53    -0.368 N 
HETATM   39  H72 0Q4 A 125       1.884  18.585  34.991  1.00  0.00     0.159 HD
HETATM   40  H71 0Q4 A 125       2.126  18.597  36.744  1.00  0.00     0.159 HD
ENDBRANCH  35  36
BRANCH  35  41
HETATM   41  CB6 0Q4 A 125       2.926  16.147  33.757  1.00 32.55     0.035 C 
BRANCH  41  42
HETATM   42  CG6 0Q4 A 125       2.948  17.255  32.646  1.00 32.73     0.002 C 
BRANCH  42  43
HETATM   43  CD4 0Q4 A 125       3.079  16.706  31.171  1.00 31.59    -0.004 C 
HETATM   44  CE  0Q4 A 125       1.812  16.963  30.381  1.00 23.29     0.005 C 
ENDBRANCH  42  43
ENDBRANCH  41  42
ENDBRANCH  35  41
ENDBRANCH  33  35
ENDBRANCH  29  31
ENDBRANCH  27  29
ENDBRANCH  24  25
BRANCH  24  45
HETATM   45  CB4 0Q4 A 125      -4.776  15.540  35.238  1.00 17.07     0.045 C 
BRANCH  45  46
HETATM   46  CG5 0Q4 A 125      -5.115  16.213  36.555  1.00 18.50     0.116 C 
BRANCH  46  47
HETATM   47  CD3 0Q4 A 125      -6.591  16.626  36.658  1.00 26.68     0.172 C 
HETATM   48  OE1 0Q4 A 125      -6.984  17.609  36.003  1.00 29.71    -0.648 OA
HETATM   49  OE2 0Q4 A 125      -7.379  15.973  37.392  1.00 31.35    -0.648 OA
ENDBRANCH  46  47
ENDBRANCH  45  46
ENDBRANCH  24  45
ENDBRANCH  22  24
ENDBRANCH  19  20
BRANCH  19  50
HETATM   50  CB3 0Q4 A 125      -8.602  14.679  32.329  1.00 18.22     0.073 C 
BRANCH  50  51
HETATM   51  CG4 0Q4 A 125      -9.997  14.259  32.578  1.00 21.59    -0.056 A 
HETATM   52  CD1 0Q4 A 125     -10.342  13.609  33.756  1.00 22.99     0.007 A 
HETATM   53  CE1 0Q4 A 125     -11.682  13.244  34.022  1.00 24.00     0.001 A 
HETATM   54  CZ1 0Q4 A 125     -12.687  13.528  33.092  1.00 25.64     0.000 A 
HETATM   55  CE2 0Q4 A 125     -12.353  14.171  31.901  1.00 27.27     0.001 A 
HETATM   56  CD2 0Q4 A 125     -10.996  14.536  31.650  1.00 24.65     0.007 A 
ENDBRANCH  50  51
ENDBRANCH  19  50
ENDBRANCH  17  19
ENDBRANCH  15  16
BRANCH  15  57
HETATM   57  CB2 0Q4 A 125      -6.541  17.296  27.907  1.00 19.32     0.034 C 
BRANCH  57  58
HETATM   58  CG3 0Q4 A 125      -6.443  17.452  26.363  1.00 21.12    -0.020 C 
HETATM   59  CD1 0Q4 A 125      -5.611  18.659  25.934  1.00 21.22     0.009 C 
HETATM   60  CD2 0Q4 A 125      -5.869  16.188  25.750  1.00 17.47     0.009 C 
ENDBRANCH  57  58
ENDBRANCH  15  57
ENDBRANCH  13  15
ENDBRANCH  10  11
BRANCH  10  61
HETATM   61  CB1 0Q4 A 125     -10.926  17.831  25.789  1.00 19.28     0.009 C 
HETATM   62  CG1 0Q4 A 125     -10.381  17.330  24.450  1.00 20.08     0.012 C 
HETATM   63  CG2 0Q4 A 125     -12.285  18.507  25.520  1.00 19.54     0.012 C 
ENDBRANCH  10  61
ENDBRANCH   8  10
ENDBRANCH   5   6
BRANCH   5  64
HETATM   64  CB  0Q4 A 125     -14.629  17.913  29.313  1.00 21.80     0.044 C 
BRANCH  64  65
HETATM   65  CG  0Q4 A 125     -15.018  19.085  30.279  1.00 26.69     0.023 C 
BRANCH  65  66
HETATM   66  CD  0Q4 A 125     -14.680  20.533  29.776  1.00 29.76     0.138 C 
BRANCH  66  67
HETATM   67  NE  0Q4 A 125     -13.398  20.657  29.069  1.00 32.26    -0.227 N 
HETATM   68  CZ  0Q4 A 125     -12.264  21.092  29.622  1.00 34.72     0.665 C 
HETATM   69  NH1 0Q4 A 125     -12.252  21.429  30.900  1.00 35.07    -0.235 N 
HETATM   70  NH2 0Q4 A 125     -11.173  21.308  28.871  1.00 35.86    -0.235 N 
HETATM   71 HH11 0Q4 A 125     -13.084  21.353  31.447  1.00 15.00     0.174 HD
HETATM   72 HH12 0Q4 A 125     -11.406  21.756  31.325  1.00 15.00     0.174 HD
HETATM   73 HH21 0Q4 A 125     -11.194  21.144  27.887  1.00 15.00     0.174 HD
HETATM   74 HH22 0Q4 A 125     -10.333  21.637  29.308  1.00 15.00     0.174 HD
HETATM   75  HE  0Q4 A 125     -13.362  20.405  28.119  1.00 15.00     0.177 HD
ENDBRANCH  66  67
ENDBRANCH  65  66
ENDBRANCH  64  65
ENDBRANCH   5  64
ENDBRANCH   1   5
TORSDOF 29
ENDMDL
MODEL 19
REMARK VINA RESULT:      -6.9      4.557      8.044
REMARK  29 active torsions:
REMARK  status: ('A' for Active; 'I' for Inactive)
REMARK    1  A    between atoms: N_1  and  CA_2 
REMARK    2  A    between atoms: CA_2  and  C_4 
REMARK    3  A    between atoms: CA_2  and  CB_6 
REMARK       I    between atoms: C_4  and  N1_19 
REMARK    4  A    between atoms: CB_6  and  CG_9 
REMARK    5  A    between atoms: CG_9  and  CD_12 
REMARK    6  A    between atoms: CD_12  and  NE_15 
REMARK       I    between atoms: NE_15  and  CZ_16 
REMARK       I    between atoms: CZ_16  and  NH1_17 
REMARK    7  A    between atoms: N1_19  and  CA1_20 
REMARK    8  A    between atoms: CA1_20  and  C1_22 
REMARK    9  A    between atoms: CA1_20  and  CB1_24 
REMARK       I    between atoms: C1_22  and  N2_34 
REMARK   10  A    between atoms: N2_34  and  CA2_35 
REMARK   11  A    between atoms: CA2_35  and  C2_37 
REMARK   12  A    between atoms: CA2_35  and  CB2_39 
REMARK   13  A    between atoms: CB2_39  and  CG3_42 
REMARK   14  A    between atoms: N3_52  and  CA3_53 
REMARK   15  A    between atoms: CA3_53  and  C3_55 
REMARK   16  A    between atoms: CA3_53  and  CB3_57 
REMARK       I    between atoms: C3_55  and  N4_71 
REMARK   17  A    between atoms: CB3_57  and  CG4_60 
REMARK   18  A    between atoms: N4_71  and  CA4_72 
REMARK   19  A    between atoms: CA4_72  and  C4_74 
REMARK   20  A    between atoms: CA4_72  and  CB4_76 
REMARK       I    between atoms: C4_74  and  N5_85 
REMARK   21  A    between atoms: CB4_76  and  CG5_79 
REMARK   22  A    between atoms: CG5_79  and  CD3_82 
REMARK   23  A    between atoms: N5_85  and  CA5_86 
REMARK   24  A    between atoms: CA5_86  and  C5_88 
REMARK       I    between atoms: C5_88  and  N6_94 
REMARK   25  A    between atoms: N6_94  and  CA6_95 
REMARK   26  A    between atoms: CA6_95  and  C6_97 
REMARK   27  A    between atoms: CA6_95  and  CB6_99 
REMARK       I    between atoms: C6_97  and  N7_112 
REMARK   28  A    between atoms: CB6_99  and  CG6_102 
REMARK   29  A    between atoms: CG6_102  and  CD4_105 
ROOT
HETATM    1  N   0Q4 A 125      -6.336   7.528  28.528  1.00 21.27    -0.067 N 
HETATM    2  H   0Q4 A 125      -6.569   6.526  28.492  1.00 15.00     0.275 HD
HETATM    3  H2  0Q4 A 125      -6.347   7.879  29.519  1.00 15.00     0.275 HD
HETATM    4  HN3 0Q4 A 125      -7.024   8.050  27.964  1.00 15.00     0.275 HD
ENDROOT
BRANCH   1   5
HETATM    5  CA  0Q4 A 125      -4.950   7.784  28.026  1.00 21.76     0.274 C 
BRANCH   5   6
HETATM    6  C   0Q4 A 125      -4.922   9.165  27.298  1.00 21.89     0.249 C 
HETATM    7  O   0Q4 A 125      -3.867   9.585  26.786  1.00 22.48    -0.271 OA
HETATM    8  N1  0Q4 A 125      -6.090   9.822  27.198  1.00 19.10    -0.346 N 
HETATM    9  H1  0Q4 A 125      -6.906   9.479  27.621  1.00 15.00     0.163 HD
BRANCH   8  10
HETATM   10  CA1 0Q4 A 125      -6.235  11.098  26.496  1.00 18.90     0.180 C 
BRANCH  10  11
HETATM   11  C1  0Q4 A 125      -5.917  12.307  27.415  1.00 17.14     0.241 C 
HETATM   12  O1  0Q4 A 125      -5.373  12.182  28.505  1.00 18.87    -0.271 OA
HETATM   13  N2  0Q4 A 125      -6.374  13.479  27.011  1.00 17.78    -0.350 N 
HETATM   14  HN2 0Q4 A 125      -6.887  13.542  26.174  1.00 15.00     0.163 HD
BRANCH  13  15
HETATM   15  CA2 0Q4 A 125      -6.082  14.692  27.752  1.00 17.96     0.123 C 
BRANCH  15  16
HETATM   16  C2  0Q4 A 125      -7.134  15.142  28.757  1.00 17.56     0.081 C 
HETATM   17  N3  0Q4 A 125      -6.732  15.215  30.013  1.00 16.64    -0.387 N 
HETATM   18  H3  0Q4 A 125      -5.809  14.971  30.215  1.00 15.00     0.159 HD
BRANCH  17  19
HETATM   19  CA3 0Q4 A 125      -7.590  15.668  31.114  1.00 16.89     0.177 C 
BRANCH  19  20
HETATM   20  C3  0Q4 A 125      -6.652  16.458  32.070  1.00 15.06     0.241 C 
HETATM   21  O2  0Q4 A 125      -7.060  17.473  32.640  1.00 12.51    -0.271 OA
HETATM   22  N4  0Q4 A 125      -5.457  15.921  32.317  1.00 14.54    -0.346 N 
HETATM   23  H4  0Q4 A 125      -5.173  15.115  31.834  1.00 15.00     0.163 HD
BRANCH  22  24
HETATM   24  CA4 0Q4 A 125      -4.496  16.508  33.255  1.00 15.81     0.177 C 
BRANCH  24  25
HETATM   25  C4  0Q4 A 125      -3.039  16.539  32.782  1.00 17.52     0.241 C 
HETATM   26  O3  0Q4 A 125      -2.136  15.983  33.411  1.00 17.50    -0.271 OA
HETATM   27  N5  0Q4 A 125      -2.794  17.329  31.750  1.00 19.61    -0.346 N 
HETATM   28  H5  0Q4 A 125      -3.519  17.850  31.338  1.00 15.00     0.163 HD
BRANCH  27  29
HETATM   29  CA5 0Q4 A 125      -1.459  17.443  31.202  1.00 21.82     0.172 C 
HETATM   30  CB5 0Q4 A 125      -1.481  18.486  30.101  1.00 22.24     0.042 C 
BRANCH  29  31
HETATM   31  C5  0Q4 A 125      -0.322  17.776  32.199  1.00 24.09     0.240 C 
HETATM   32  O4  0Q4 A 125      -0.174  18.908  32.666  1.00 20.88    -0.271 OA
HETATM   33  N6  0Q4 A 125       0.502  16.766  32.459  1.00 27.66    -0.346 N 
HETATM   34  H6  0Q4 A 125       0.334  15.916  32.017  1.00 15.00     0.163 HD
BRANCH  33  35
HETATM   35  CA6 0Q4 A 125       1.686  16.875  33.301  1.00 31.09     0.176 C 
BRANCH  35  36
HETATM   36  C6  0Q4 A 125       2.866  16.392  32.441  1.00 33.78     0.238 C 
HETATM   37  O5  0Q4 A 125       3.123  16.952  31.335  1.00 34.60    -0.271 OA
HETATM   38  N7  0Q4 A 125       3.512  15.411  32.884  1.00 36.53    -0.368 N 
HETATM   39  H72 0Q4 A 125       3.305  14.959  33.775  1.00  0.00     0.159 HD
HETATM   40  H71 0Q4 A 125       4.295  15.090  32.313  1.00  0.00     0.159 HD
ENDBRANCH  35  36
BRANCH  35  41
HETATM   41  CB6 0Q4 A 125       1.511  15.947  34.531  1.00 32.55     0.035 C 
BRANCH  41  42
HETATM   42  CG6 0Q4 A 125       0.690  16.500  35.748  1.00 32.73     0.002 C 
BRANCH  42  43
HETATM   43  CD4 0Q4 A 125       1.456  16.463  37.129  1.00 31.59    -0.004 C 
HETATM   44  CE  0Q4 A 125       1.966  17.839  37.504  1.00 23.29     0.005 C 
ENDBRANCH  42  43
ENDBRANCH  41  42
ENDBRANCH  35  41
ENDBRANCH  33  35
ENDBRANCH  29  31
ENDBRANCH  27  29
ENDBRANCH  24  25
BRANCH  24  45
HETATM   45  CB4 0Q4 A 125      -4.587  15.759  34.614  1.00 17.07     0.045 C 
BRANCH  45  46
HETATM   46  CG5 0Q4 A 125      -5.183  16.514  35.786  1.00 18.50     0.116 C 
BRANCH  46  47
HETATM   47  CD3 0Q4 A 125      -6.708  16.358  35.892  1.00 26.68     0.172 C 
HETATM   48  OE1 0Q4 A 125      -7.239  15.343  35.404  1.00 29.71    -0.648 OA
HETATM   49  OE2 0Q4 A 125      -7.395  17.242  36.468  1.00 31.35    -0.648 OA
ENDBRANCH  46  47
ENDBRANCH  45  46
ENDBRANCH  24  45
ENDBRANCH  22  24
ENDBRANCH  19  20
BRANCH  19  50
HETATM   50  CB3 0Q4 A 125      -8.276  14.403  31.713  1.00 18.22     0.073 C 
BRANCH  50  51
HETATM   51  CG4 0Q4 A 125      -9.586  14.640  32.355  1.00 21.59    -0.056 A 
HETATM   52  CD1 0Q4 A 125     -10.366  15.729  31.992  1.00 22.99     0.007 A 
HETATM   53  CE1 0Q4 A 125     -11.640  15.938  32.569  1.00 24.00     0.001 A 
HETATM   54  CZ1 0Q4 A 125     -12.134  15.046  33.527  1.00 25.64     0.000 A 
HETATM   55  CE2 0Q4 A 125     -11.356  13.954  33.907  1.00 27.27     0.001 A 
HETATM   56  CD2 0Q4 A 125     -10.073  13.756  33.312  1.00 24.65     0.007 A 
ENDBRANCH  50  51
ENDBRANCH  19  50
ENDBRANCH  17  19
ENDBRANCH  15  16
BRANCH  15  57
HETATM   57  CB2 0Q4 A 125      -5.694  15.822  26.767  1.00 19.32     0.034 C 
BRANCH  57  58
HETATM   58  CG3 0Q4 A 125      -5.675  17.253  27.375  1.00 21.12    -0.020 C 
HETATM   59  CD1 0Q4 A 125      -4.424  17.534  28.206  1.00 21.22     0.009 C 
HETATM   60  CD2 0Q4 A 125      -5.802  18.287  26.272  1.00 17.47     0.009 C 
ENDBRANCH  57  58
ENDBRANCH  15  57
ENDBRANCH  13  15
ENDBRANCH  10  11
BRANCH  10  61
HETATM   61  CB1 0Q4 A 125      -7.679  11.178  25.779  1.00 19.28     0.009 C 
HETATM   62  CG1 0Q4 A 125      -7.554  11.409  24.271  1.00 20.08     0.012 C 
HETATM   63  CG2 0Q4 A 125      -8.465   9.868  25.989  1.00 19.54     0.012 C 
ENDBRANCH  10  61
ENDBRANCH   8  10
ENDBRANCH   5   6
BRANCH   5  64
HETATM   64  CB  0Q4 A 125      -4.524   6.621  27.120  1.00 21.80     0.044 C 
BRANCH  64  65
HETATM   65  CG  0Q4 A 125      -3.539   5.568  27.734  1.00 26.69     0.023 C 
BRANCH  65  66
HETATM   66  CD  0Q4 A 125      -2.014   5.933  27.670  1.00 29.76     0.138 C 
BRANCH  66  67
HETATM   67  NE  0Q4 A 125      -1.729   7.363  27.492  1.00 32.26    -0.227 N 
HETATM   68  CZ  0Q4 A 125      -0.998   7.874  26.498  1.00 34.72     0.665 C 
HETATM   69  NH1 0Q4 A 125      -0.494   7.066  25.581  1.00 35.07    -0.235 N 
HETATM   70  NH2 0Q4 A 125      -0.668   9.174  26.486  1.00 35.86    -0.235 N 
HETATM   71 HH11 0Q4 A 125      -0.662   6.083  25.630  1.00 15.00     0.174 HD
HETATM   72 HH12 0Q4 A 125       0.055   7.439  24.831  1.00 15.00     0.174 HD
HETATM   73 HH21 0Q4 A 125      -0.966   9.780  27.222  1.00 15.00     0.174 HD
HETATM   74 HH22 0Q4 A 125      -0.117   9.535  25.731  1.00 15.00     0.174 HD
HETATM   75  HE  0Q4 A 125      -2.095   7.998  28.146  1.00 15.00     0.177 HD
ENDBRANCH  66  67
ENDBRANCH  65  66
ENDBRANCH  64  65
ENDBRANCH   5  64
ENDBRANCH   1   5
TORSDOF 29
ENDMDL
MODEL 20
REMARK VINA RESULT:      -6.9      2.522      5.550
REMARK  29 active torsions:
REMARK  status: ('A' for Active; 'I' for Inactive)
REMARK    1  A    between atoms: N_1  and  CA_2 
REMARK    2  A    between atoms: CA_2  and  C_4 
REMARK    3  A    between atoms: CA_2  and  CB_6 
REMARK       I    between atoms: C_4  and  N1_19 
REMARK    4  A    between atoms: CB_6  and  CG_9 
REMARK    5  A    between atoms: CG_9  and  CD_12 
REMARK    6  A    between atoms: CD_12  and  NE_15 
REMARK       I    between atoms: NE_15  and  CZ_16 
REMARK       I    between atoms: CZ_16  and  NH1_17 
REMARK    7  A    between atoms: N1_19  and  CA1_20 
REMARK    8  A    between atoms: CA1_20  and  C1_22 
REMARK    9  A    between atoms: CA1_20  and  CB1_24 
REMARK       I    between atoms: C1_22  and  N2_34 
REMARK   10  A    between atoms: N2_34  and  CA2_35 
REMARK   11  A    between atoms: CA2_35  and  C2_37 
REMARK   12  A    between atoms: CA2_35  and  CB2_39 
REMARK   13  A    between atoms: CB2_39  and  CG3_42 
REMARK   14  A    between atoms: N3_52  and  CA3_53 
REMARK   15  A    between atoms: CA3_53  and  C3_55 
REMARK   16  A    between atoms: CA3_53  and  CB3_57 
REMARK       I    between atoms: C3_55  and  N4_71 
REMARK   17  A    between atoms: CB3_57  and  CG4_60 
REMARK   18  A    between atoms: N4_71  and  CA4_72 
REMARK   19  A    between atoms: CA4_72  and  C4_74 
REMARK   20  A    between atoms: CA4_72  and  CB4_76 
REMARK       I    between atoms: C4_74  and  N5_85 
REMARK   21  A    between atoms: CB4_76  and  CG5_79 
REMARK   22  A    between atoms: CG5_79  and  CD3_82 
REMARK   23  A    between atoms: N5_85  and  CA5_86 
REMARK   24  A    between atoms: CA5_86  and  C5_88 
REMARK       I    between atoms: C5_88  and  N6_94 
REMARK   25  A    between atoms: N6_94  and  CA6_95 
REMARK   26  A    between atoms: CA6_95  and  C6_97 
REMARK   27  A    between atoms: CA6_95  and  CB6_99 
REMARK       I    between atoms: C6_97  and  N7_112 
REMARK   28  A    between atoms: CB6_99  and  CG6_102 
REMARK   29  A    between atoms: CG6_102  and  CD4_105 
ROOT
HETATM    1  N   0Q4 A 125     -14.521  18.690  35.299  1.00 21.27    -0.067 N 
HETATM    2  H   0Q4 A 125     -14.830  19.646  35.072  1.00 15.00     0.275 HD
HETATM    3  H2  0Q4 A 125     -14.691  18.472  36.313  1.00 15.00     0.275 HD
HETATM    4  HN3 0Q4 A 125     -13.514  18.609  35.088  1.00 15.00     0.275 HD
ENDROOT
BRANCH   1   5
HETATM    5  CA  0Q4 A 125     -15.298  17.670  34.531  1.00 21.76     0.274 C 
BRANCH   5   6
HETATM    6  C   0Q4 A 125     -14.596  16.282  34.677  1.00 21.89     0.249 C 
HETATM    7  O   0Q4 A 125     -14.944  15.322  33.964  1.00 22.48    -0.271 OA
HETATM    8  N1  0Q4 A 125     -13.574  16.209  35.545  1.00 19.10    -0.346 N 
HETATM    9  H1  0Q4 A 125     -13.326  16.973  36.108  1.00 15.00     0.163 HD
BRANCH   8  10
HETATM   10  CA1 0Q4 A 125     -12.782  14.995  35.752  1.00 18.90     0.180 C 
BRANCH  10  11
HETATM   11  C1  0Q4 A 125     -12.267  14.401  34.414  1.00 17.14     0.241 C 
HETATM   12  O1  0Q4 A 125     -12.416  13.223  34.116  1.00 18.87    -0.271 OA
HETATM   13  N2  0Q4 A 125     -11.551  15.212  33.657  1.00 17.78    -0.350 N 
HETATM   14  HN2 0Q4 A 125     -11.369  16.130  33.958  1.00 15.00     0.163 HD
BRANCH  13  15
HETATM   15  CA2 0Q4 A 125     -11.072  14.791  32.354  1.00 17.96     0.123 C 
BRANCH  15  16
HETATM   16  C2  0Q4 A 125      -9.592  14.446  32.253  1.00 17.56     0.081 C 
HETATM   17  N3  0Q4 A 125      -8.875  15.223  31.461  1.00 16.64    -0.387 N 
HETATM   18  H3  0Q4 A 125      -9.332  15.948  30.993  1.00 15.00     0.159 HD
BRANCH  17  19
HETATM   19  CA3 0Q4 A 125      -7.428  15.073  31.270  1.00 16.89     0.177 C 
BRANCH  19  20
HETATM   20  C3  0Q4 A 125      -6.778  16.170  32.158  1.00 15.06     0.241 C 
HETATM   21  O2  0Q4 A 125      -7.392  17.210  32.409  1.00 12.51    -0.271 OA
HETATM   22  N4  0Q4 A 125      -5.600  15.876  32.709  1.00 14.54    -0.346 N 
HETATM   23  H4  0Q4 A 125      -5.145  15.038  32.475  1.00 15.00     0.163 HD
BRANCH  22  24
HETATM   24  CA4 0Q4 A 125      -4.902  16.777  33.631  1.00 15.81     0.177 C 
BRANCH  24  25
HETATM   25  C4  0Q4 A 125      -3.382  16.856  33.459  1.00 17.52     0.241 C 
HETATM   26  O3  0Q4 A 125      -2.620  16.957  34.423  1.00 17.50    -0.271 OA
HETATM   27  N5  0Q4 A 125      -2.956  16.971  32.212  1.00 19.61    -0.346 N 
HETATM   28  H5  0Q4 A 125      -3.598  17.002  31.468  1.00 15.00     0.163 HD
BRANCH  27  29
HETATM   29  CA5 0Q4 A 125      -1.543  17.049  31.913  1.00 21.82     0.172 C 
HETATM   30  CB5 0Q4 A 125      -1.030  18.401  32.369  1.00 22.24     0.042 C 
BRANCH  29  31
HETATM   31  C5  0Q4 A 125      -0.642  15.935  32.504  1.00 24.09     0.240 C 
HETATM   32  O4  0Q4 A 125      -0.751  14.757  32.158  1.00 20.88    -0.271 OA
HETATM   33  N6  0Q4 A 125       0.203  16.345  33.443  1.00 27.66    -0.346 N 
HETATM   34  H6  0Q4 A 125       0.196  17.288  33.684  1.00 15.00     0.163 HD
BRANCH  33  35
HETATM   35  CA6 0Q4 A 125       1.083  15.458  34.192  1.00 31.09     0.176 C 
BRANCH  35  36
HETATM   36  C6  0Q4 A 125       0.932  15.856  35.670  1.00 33.78     0.238 C 
HETATM   37  O5  0Q4 A 125       1.372  15.099  36.585  1.00 34.60    -0.271 OA
HETATM   38  N7  0Q4 A 125       0.328  16.933  35.897  1.00 36.53    -0.368 N 
HETATM   39  H72 0Q4 A 125      -0.027  17.543  35.161  1.00  0.00     0.159 HD
HETATM   40  H71 0Q4 A 125       0.227  17.197  36.877  1.00  0.00     0.159 HD
ENDBRANCH  35  36
BRANCH  35  41
HETATM   41  CB6 0Q4 A 125       2.543  15.694  33.727  1.00 32.55     0.035 C 
BRANCH  41  42
HETATM   42  CG6 0Q4 A 125       2.820  16.927  32.796  1.00 32.73     0.002 C 
BRANCH  42  43
HETATM   43  CD4 0Q4 A 125       4.264  16.959  32.157  1.00 31.59    -0.004 C 
HETATM   44  CE  0Q4 A 125       4.351  16.031  30.963  1.00 23.29     0.005 C 
ENDBRANCH  42  43
ENDBRANCH  41  42
ENDBRANCH  35  41
ENDBRANCH  33  35
ENDBRANCH  29  31
ENDBRANCH  27  29
ENDBRANCH  24  25
BRANCH  24  45
HETATM   45  CB4 0Q4 A 125      -5.241  16.374  35.094  1.00 17.07     0.045 C 
BRANCH  45  46
HETATM   46  CG5 0Q4 A 125      -6.097  17.332  35.900  1.00 18.50     0.116 C 
BRANCH  46  47
HETATM   47  CD3 0Q4 A 125      -6.917  16.634  36.995  1.00 26.68     0.172 C 
HETATM   48  OE1 0Q4 A 125      -6.655  16.882  38.187  1.00 29.71    -0.648 OA
HETATM   49  OE2 0Q4 A 125      -7.835  15.831  36.681  1.00 31.35    -0.648 OA
ENDBRANCH  46  47
ENDBRANCH  45  46
ENDBRANCH  24  45
ENDBRANCH  22  24
ENDBRANCH  19  20
BRANCH  19  50
HETATM   50  CB3 0Q4 A 125      -7.154  15.175  29.739  1.00 18.22     0.073 C 
BRANCH  50  51
HETATM   51  CG4 0Q4 A 125      -6.742  16.510  29.259  1.00 21.59    -0.056 A 
HETATM   52  CD1 0Q4 A 125      -7.690  17.455  28.891  1.00 22.99     0.007 A 
HETATM   53  CE1 0Q4 A 125      -7.305  18.750  28.474  1.00 24.00     0.001 A 
HETATM   54  CZ1 0Q4 A 125      -5.952  19.099  28.418  1.00 25.64     0.000 A 
HETATM   55  CE2 0Q4 A 125      -4.989  18.156  28.776  1.00 27.27     0.001 A 
HETATM   56  CD2 0Q4 A 125      -5.395  16.854  29.198  1.00 24.65     0.007 A 
ENDBRANCH  50  51
ENDBRANCH  19  50
ENDBRANCH  17  19
ENDBRANCH  15  16
BRANCH  15  57
HETATM   57  CB2 0Q4 A 125     -11.505  15.821  31.283  1.00 19.32     0.034 C 
BRANCH  57  58
HETATM   58  CG3 0Q4 A 125     -12.450  15.271  30.178  1.00 21.12    -0.020 C 
HETATM   59  CD1 0Q4 A 125     -13.810  14.830  30.718  1.00 21.22     0.009 C 
HETATM   60  CD2 0Q4 A 125     -12.642  16.314  29.093  1.00 17.47     0.009 C 
ENDBRANCH  57  58
ENDBRANCH  15  57
ENDBRANCH  13  15
ENDBRANCH  10  11
BRANCH  10  61
HETATM   61  CB1 0Q4 A 125     -13.600  13.946  36.666  1.00 19.28     0.009 C 
HETATM   62  CG1 0Q4 A 125     -12.677  12.901  37.297  1.00 20.08     0.012 C 
HETATM   63  CG2 0Q4 A 125     -14.333  14.676  37.810  1.00 19.54     0.012 C 
ENDBRANCH  10  61
ENDBRANCH   8  10
ENDBRANCH   5   6
BRANCH   5  64
HETATM   64  CB  0Q4 A 125     -15.420  18.127  33.072  1.00 21.80     0.044 C 
BRANCH  64  65
HETATM   65  CG  0Q4 A 125     -14.333  19.128  32.550  1.00 26.69     0.023 C 
BRANCH  65  66
HETATM   66  CD  0Q4 A 125     -14.687  19.905  31.233  1.00 29.76     0.138 C 
BRANCH  66  67
HETATM   67  NE  0Q4 A 125     -13.607  19.962  30.240  1.00 32.26    -0.227 N 
HETATM   68  CZ  0Q4 A 125     -12.657  20.901  30.203  1.00 34.72     0.665 C 
HETATM   69  NH1 0Q4 A 125     -12.649  21.853  31.120  1.00 35.07    -0.235 N 
HETATM   70  NH2 0Q4 A 125     -11.791  20.961  29.181  1.00 35.86    -0.235 N 
HETATM   71 HH11 0Q4 A 125     -13.345  21.866  31.837  1.00 15.00     0.174 HD
HETATM   72 HH12 0Q4 A 125     -11.942  22.561  31.101  1.00 15.00     0.174 HD
HETATM   73 HH21 0Q4 A 125     -11.842  20.301  28.433  1.00 15.00     0.174 HD
HETATM   74 HH22 0Q4 A 125     -11.088  21.675  29.173  1.00 15.00     0.174 HD
HETATM   75  HE  0Q4 A 125     -13.570  19.266  29.547  1.00 15.00     0.177 HD
ENDBRANCH  66  67
ENDBRANCH  65  66
ENDBRANCH  64  65
ENDBRANCH   5  64
ENDBRANCH   1   5
TORSDOF 29
ENDMDL
