REMARK  29 active torsions:
REMARK  status: ('A' for Active; 'I' for Inactive)
REMARK    1  A    between atoms: N_1  and  CA_2 
REMARK    2  A    between atoms: CA_2  and  C_4 
REMARK    3  A    between atoms: CA_2  and  CB_6 
REMARK       I    between atoms: C_4  and  N1_19 
REMARK    4  A    between atoms: CB_6  and  CG_9 
REMARK    5  A    between atoms: CG_9  and  CD_12 
REMARK    6  A    between atoms: CD_12  and  NE_15 
REMARK       I    between atoms: NE_15  and  CZ_16 
REMARK       I    between atoms: CZ_16  and  NH1_17 
REMARK    7  A    between atoms: N1_19  and  CA1_20 
REMARK    8  A    between atoms: CA1_20  and  C1_22 
REMARK    9  A    between atoms: CA1_20  and  CB1_24 
REMARK       I    between atoms: C1_22  and  N2_34 
REMARK   10  A    between atoms: N2_34  and  CA2_35 
REMARK   11  A    between atoms: CA2_35  and  C2_37 
REMARK   12  A    between atoms: CA2_35  and  CB2_39 
REMARK   13  A    between atoms: CB2_39  and  CG3_42 
REMARK   14  A    between atoms: N3_52  and  CA3_53 
REMARK   15  A    between atoms: CA3_53  and  C3_55 
REMARK   16  A    between atoms: CA3_53  and  CB3_57 
REMARK       I    between atoms: C3_55  and  N4_71 
REMARK   17  A    between atoms: CB3_57  and  CG4_60 
REMARK   18  A    between atoms: N4_71  and  CA4_72 
REMARK   19  A    between atoms: CA4_72  and  C4_74 
REMARK   20  A    between atoms: CA4_72  and  CB4_76 
REMARK       I    between atoms: C4_74  and  N5_85 
REMARK   21  A    between atoms: CB4_76  and  CG5_79 
REMARK   22  A    between atoms: CG5_79  and  CD3_82 
REMARK   23  A    between atoms: N5_85  and  CA5_86 
REMARK   24  A    between atoms: CA5_86  and  C5_88 
REMARK       I    between atoms: C5_88  and  N6_94 
REMARK   25  A    between atoms: N6_94  and  CA6_95 
REMARK   26  A    between atoms: CA6_95  and  C6_97 
REMARK   27  A    between atoms: CA6_95  and  CB6_99 
REMARK       I    between atoms: C6_97  and  N7_112 
REMARK   28  A    between atoms: CB6_99  and  CG6_102 
REMARK   29  A    between atoms: CG6_102  and  CD4_105 
ROOT
HETATM    1  N   0Q4 A 125       9.011  16.052  33.566  1.00 21.27    -0.067 N 
HETATM    2  H   0Q4 A 125       8.921  15.936  32.547  1.00 15.00     0.275 HD
HETATM    3  H2  0Q4 A 125       9.206  17.055  33.813  1.00 15.00     0.275 HD
HETATM    4  HN3 0Q4 A 125       9.782  15.453  33.901  1.00 15.00     0.275 HD
ENDROOT
BRANCH   1   5
HETATM    5  CA  0Q4 A 125       7.738  15.704  34.269  1.00 21.76     0.274 C 
BRANCH   5   6
HETATM    6  C   0Q4 A 125       6.583  16.583  33.691  1.00 21.89     0.249 C 
HETATM    7  O   0Q4 A 125       6.732  17.813  33.564  1.00 22.48    -0.271 OA
HETATM    8  N1  0Q4 A 125       5.477  15.939  33.284  1.00 19.10    -0.346 N 
HETATM    9  H1  0Q4 A 125       5.375  14.971  33.407  1.00 15.00     0.163 HD
BRANCH   8  10
HETATM   10  CA1 0Q4 A 125       4.334  16.617  32.670  1.00 18.90     0.180 C 
BRANCH  10  11
HETATM   11  C1  0Q4 A 125       2.998  16.256  33.370  1.00 17.14     0.241 C 
HETATM   12  O1  0Q4 A 125       2.367  15.241  33.103  1.00 18.87    -0.271 OA
HETATM   13  N2  0Q4 A 125       2.510  17.166  34.194  1.00 17.78    -0.350 N 
HETATM   14  HN2 0Q4 A 125       2.990  18.014  34.326  1.00 15.00     0.163 HD
BRANCH  13  15
HETATM   15  CA2 0Q4 A 125       1.302  16.914  34.957  1.00 17.96     0.123 C 
BRANCH  15  16
HETATM   16  C2  0Q4 A 125      -0.003  17.405  34.344  1.00 17.56     0.081 C 
HETATM   17  N3  0Q4 A 125      -0.141  17.196  33.047  1.00 16.64    -0.387 N 
HETATM   18  H3  0Q4 A 125       0.591  16.758  32.572  1.00 15.00     0.159 HD
BRANCH  17  19
HETATM   19  CA3 0Q4 A 125      -1.344  17.561  32.290  1.00 16.89     0.177 C 
BRANCH  19  20
HETATM   20  C3  0Q4 A 125      -2.452  16.588  32.781  1.00 15.06     0.241 C 
HETATM   21  O2  0Q4 A 125      -2.205  15.388  32.924  1.00 12.51    -0.271 OA
HETATM   22  N4  0Q4 A 125      -3.615  17.134  33.138  1.00 14.54    -0.346 N 
HETATM   23  H4  0Q4 A 125      -3.768  18.094  33.000  1.00 15.00     0.163 HD
BRANCH  22  24
HETATM   24  CA4 0Q4 A 125      -4.726  16.356  33.693  1.00 15.81     0.177 C 
BRANCH  24  25
HETATM   25  C4  0Q4 A 125      -6.111  16.673  33.120  1.00 17.52     0.241 C 
HETATM   26  O3  0Q4 A 125      -6.534  17.828  33.035  1.00 17.50    -0.271 OA
HETATM   27  N5  0Q4 A 125      -6.878  15.624  32.875  1.00 19.61    -0.346 N 
HETATM   28  H5  0Q4 A 125      -6.553  14.715  33.060  1.00 15.00     0.163 HD
BRANCH  27  29
HETATM   29  CA5 0Q4 A 125      -8.207  15.787  32.326  1.00 21.82     0.172 C 
HETATM   30  CB5 0Q4 A 125      -8.114  15.709  30.814  1.00 22.24     0.042 C 
BRANCH  29  31
HETATM   31  C5  0Q4 A 125      -9.293  14.800  32.823  1.00 24.09     0.240 C 
HETATM   32  O4  0Q4 A 125      -9.026  13.635  33.125  1.00 20.88    -0.271 OA
HETATM   33  N6  0Q4 A 125     -10.526  15.295  32.840  1.00 27.66    -0.346 N 
HETATM   34  H6  0Q4 A 125     -10.653  16.214  32.548  1.00 15.00     0.163 HD
BRANCH  33  35
HETATM   35  CA6 0Q4 A 125     -11.710  14.522  33.191  1.00 31.09     0.176 C 
BRANCH  35  36
HETATM   36  C6  0Q4 A 125     -11.748  13.334  32.215  1.00 33.78     0.238 C 
HETATM   37  O5  0Q4 A 125     -11.875  12.152  32.650  1.00 34.60    -0.271 OA
HETATM   38  N7  0Q4 A 125     -11.613  13.610  30.997  1.00 36.53    -0.368 N 
HETATM   39  H72 0Q4 A 125     -11.511  14.562  30.646  1.00  0.00     0.159 HD
HETATM   40  H71 0Q4 A 125     -11.638  12.822  30.350  1.00  0.00     0.159 HD
ENDBRANCH  35  36
BRANCH  35  41
HETATM   41  CB6 0Q4 A 125     -12.964  15.412  32.992  1.00 32.55     0.035 C 
BRANCH  41  42
HETATM   42  CG6 0Q4 A 125     -14.314  14.697  32.633  1.00 32.73     0.002 C 
BRANCH  42  43
HETATM   43  CD4 0Q4 A 125     -14.579  14.530  31.085  1.00 31.59    -0.004 C 
HETATM   44  CE  0Q4 A 125     -15.682  13.524  30.828  1.00 23.29     0.005 C 
ENDBRANCH  42  43
ENDBRANCH  41  42
ENDBRANCH  35  41
ENDBRANCH  33  35
ENDBRANCH  29  31
ENDBRANCH  27  29
ENDBRANCH  24  25
BRANCH  24  45
HETATM   45  CB4 0Q4 A 125      -4.749  16.528  35.238  1.00 17.07     0.045 C 
BRANCH  45  46
HETATM   46  CG5 0Q4 A 125      -5.782  15.732  36.012  1.00 18.50     0.116 C 
BRANCH  46  47
HETATM   47  CD3 0Q4 A 125      -7.133  16.453  36.133  1.00 26.68     0.172 C 
HETATM   48  OE1 0Q4 A 125      -7.141  17.657  36.450  1.00 29.71    -0.648 OA
HETATM   49  OE2 0Q4 A 125      -8.204  15.829  35.910  1.00 31.35    -0.648 OA
ENDBRANCH  46  47
ENDBRANCH  45  46
ENDBRANCH  24  45
ENDBRANCH  22  24
ENDBRANCH  19  20
BRANCH  19  50
HETATM   50  CB3 0Q4 A 125      -0.977  17.480  30.778  1.00 18.22     0.073 C 
BRANCH  50  51
HETATM   51  CG4 0Q4 A 125      -2.103  17.174  29.871  1.00 21.59    -0.056 A 
HETATM   52  CD1 0Q4 A 125      -2.597  15.881  29.766  1.00 22.99     0.007 A 
HETATM   53  CE1 0Q4 A 125      -3.703  15.588  28.935  1.00 24.00     0.001 A 
HETATM   54  CZ1 0Q4 A 125      -4.316  16.604  28.194  1.00 25.64     0.000 A 
HETATM   55  CE2 0Q4 A 125      -3.823  17.905  28.283  1.00 27.27     0.001 A 
HETATM   56  CD2 0Q4 A 125      -2.708  18.184  29.130  1.00 24.65     0.007 A 
ENDBRANCH  50  51
ENDBRANCH  19  50
ENDBRANCH  17  19
ENDBRANCH  15  16
BRANCH  15  57
HETATM   57  CB2 0Q4 A 125       1.490  17.417  36.409  1.00 19.32     0.034 C 
BRANCH  57  58
HETATM   58  CG3 0Q4 A 125       2.859  17.069  37.059  1.00 21.12    -0.020 C 
HETATM   59  CD1 0Q4 A 125       3.007  17.622  38.476  1.00 21.22     0.009 C 
HETATM   60  CD2 0Q4 A 125       3.060  15.565  37.071  1.00 17.47     0.009 C 
ENDBRANCH  57  58
ENDBRANCH  15  57
ENDBRANCH  13  15
ENDBRANCH  10  11
BRANCH  10  61
HETATM   61  CB1 0Q4 A 125       4.330  16.367  31.075  1.00 19.28     0.009 C 
HETATM   62  CG1 0Q4 A 125       3.098  16.981  30.406  1.00 20.08     0.012 C 
HETATM   63  CG2 0Q4 A 125       5.579  16.993  30.422  1.00 19.54     0.012 C 
ENDBRANCH  10  61
ENDBRANCH   8  10
ENDBRANCH   5   6
BRANCH   5  64
HETATM   64  CB  0Q4 A 125       7.933  15.891  35.779  1.00 21.80     0.044 C 
BRANCH  64  65
HETATM   65  CG  0Q4 A 125       6.774  15.395  36.710  1.00 26.69     0.023 C 
BRANCH  65  66
HETATM   66  CD  0Q4 A 125       6.949  13.961  37.323  1.00 29.76     0.138 C 
BRANCH  66  67
HETATM   67  NE  0Q4 A 125       7.449  13.937  38.704  1.00 32.26    -0.227 N 
HETATM   68  CZ  0Q4 A 125       6.771  14.379  39.766  1.00 34.72     0.665 C 
HETATM   69  NH1 0Q4 A 125       5.552  14.865  39.602  1.00 35.07    -0.235 N 
HETATM   70  NH2 0Q4 A 125       7.354  14.451  40.972  1.00 35.86    -0.235 N 
HETATM   71 HH11 0Q4 A 125       5.142  14.896  38.692  1.00 15.00     0.174 HD
HETATM   72 HH12 0Q4 A 125       5.035  15.199  40.392  1.00 15.00     0.174 HD
HETATM   73 HH21 0Q4 A 125       8.305  14.172  41.093  1.00 15.00     0.174 HD
HETATM   74 HH22 0Q4 A 125       6.826  14.788  41.754  1.00 15.00     0.174 HD
HETATM   75  HE  0Q4 A 125       8.347  13.573  38.870  1.00 15.00     0.177 HD
ENDBRANCH  66  67
ENDBRANCH  65  66
ENDBRANCH  64  65
ENDBRANCH   5  64
ENDBRANCH   1   5
TORSDOF 29
