MODEL 1
REMARK VINA RESULT:      -5.7      0.000      0.000
REMARK  29 active torsions:
REMARK  status: ('A' for Active; 'I' for Inactive)
REMARK    1  A    between atoms: N_1  and  CA_2 
REMARK    2  A    between atoms: CA_2  and  C_4 
REMARK    3  A    between atoms: CA_2  and  CB_6 
REMARK       I    between atoms: C_4  and  N1_19 
REMARK    4  A    between atoms: CB_6  and  CG_9 
REMARK    5  A    between atoms: CG_9  and  CD_12 
REMARK    6  A    between atoms: CD_12  and  NE_15 
REMARK       I    between atoms: NE_15  and  CZ_16 
REMARK       I    between atoms: CZ_16  and  NH1_17 
REMARK    7  A    between atoms: N1_19  and  CA1_20 
REMARK    8  A    between atoms: CA1_20  and  C1_22 
REMARK    9  A    between atoms: CA1_20  and  CB1_24 
REMARK       I    between atoms: C1_22  and  N2_34 
REMARK   10  A    between atoms: N2_34  and  CA2_35 
REMARK   11  A    between atoms: CA2_35  and  C2_37 
REMARK   12  A    between atoms: CA2_35  and  CB2_39 
REMARK   13  A    between atoms: CB2_39  and  CG3_42 
REMARK   14  A    between atoms: N3_52  and  CA3_53 
REMARK   15  A    between atoms: CA3_53  and  C3_55 
REMARK   16  A    between atoms: CA3_53  and  CB3_57 
REMARK       I    between atoms: C3_55  and  N4_71 
REMARK   17  A    between atoms: CB3_57  and  CG4_60 
REMARK   18  A    between atoms: N4_71  and  CA4_72 
REMARK   19  A    between atoms: CA4_72  and  C4_74 
REMARK   20  A    between atoms: CA4_72  and  CB4_76 
REMARK       I    between atoms: C4_74  and  N5_85 
REMARK   21  A    between atoms: CB4_76  and  CG5_79 
REMARK   22  A    between atoms: CG5_79  and  CD3_82 
REMARK   23  A    between atoms: N5_85  and  CA5_86 
REMARK   24  A    between atoms: CA5_86  and  C5_88 
REMARK       I    between atoms: C5_88  and  N6_94 
REMARK   25  A    between atoms: N6_94  and  CA6_95 
REMARK   26  A    between atoms: CA6_95  and  C6_97 
REMARK   27  A    between atoms: CA6_95  and  CB6_99 
REMARK       I    between atoms: C6_97  and  N7_112 
REMARK   28  A    between atoms: CB6_99  and  CG6_102 
REMARK   29  A    between atoms: CG6_102  and  CD4_105 
ROOT
HETATM    1  N   0Q4 A 125      -6.196  20.053  29.757  1.00 21.27    -0.067 N 
HETATM    2  H   0Q4 A 125      -6.202  19.871  30.770  1.00 15.00     0.275 HD
HETATM    3  H2  0Q4 A 125      -5.212  20.130  29.396  1.00 15.00     0.275 HD
HETATM    4  HN3 0Q4 A 125      -6.705  20.932  29.575  1.00 15.00     0.275 HD
ENDROOT
BRANCH   1   5
HETATM    5  CA  0Q4 A 125      -6.816  18.925  28.997  1.00 21.76     0.274 C 
BRANCH   5   6
HETATM    6  C   0Q4 A 125      -5.700  17.908  28.597  1.00 21.89     0.249 C 
HETATM    7  O   0Q4 A 125      -5.814  17.222  27.564  1.00 22.48    -0.271 OA
HETATM    8  N1  0Q4 A 125      -4.606  17.872  29.376  1.00 19.10    -0.346 N 
HETATM    9  H1  0Q4 A 125      -4.543  18.410  30.193  1.00 15.00     0.163 HD
BRANCH   8  10
HETATM   10  CA1 0Q4 A 125      -3.453  17.014  29.100  1.00 18.90     0.180 C 
BRANCH  10  11
HETATM   11  C1  0Q4 A 125      -2.917  16.327  30.384  1.00 17.14     0.241 C 
HETATM   12  O1  0Q4 A 125      -2.358  15.238  30.365  1.00 18.87    -0.271 OA
HETATM   13  N2  0Q4 A 125      -3.201  16.929  31.525  1.00 17.78    -0.350 N 
HETATM   14  HN2 0Q4 A 125      -3.729  17.758  31.523  1.00 15.00     0.163 HD
BRANCH  13  15
HETATM   15  CA2 0Q4 A 125      -2.697  16.418  32.786  1.00 17.96     0.123 C 
BRANCH  15  16
HETATM   16  C2  0Q4 A 125      -3.693  16.347  33.936  1.00 17.56     0.081 C 
HETATM   17  N3  0Q4 A 125      -3.885  15.147  34.455  1.00 16.64    -0.387 N 
HETATM   18  H3  0Q4 A 125      -3.394  14.397  34.069  1.00 15.00     0.159 HD
BRANCH  17  19
HETATM   19  CA3 0Q4 A 125      -4.774  14.889  35.594  1.00 16.89     0.177 C 
BRANCH  19  20
HETATM   20  C3  0Q4 A 125      -6.139  15.520  35.204  1.00 15.06     0.241 C 
HETATM   21  O2  0Q4 A 125      -6.459  16.627  35.644  1.00 12.51    -0.271 OA
HETATM   22  N4  0Q4 A 125      -6.869  14.863  34.301  1.00 14.54    -0.346 N 
HETATM   23  H4  0Q4 A 125      -6.577  13.981  33.984  1.00 15.00     0.163 HD
BRANCH  22  24
HETATM   24  CA4 0Q4 A 125      -8.139  15.372  33.778  1.00 15.81     0.177 C 
BRANCH  24  25
HETATM   25  C4  0Q4 A 125      -9.213  14.315  33.497  1.00 17.52     0.241 C 
HETATM   26  O3  0Q4 A 125      -9.006  13.355  32.752  1.00 17.50    -0.271 OA
HETATM   27  N5  0Q4 A 125     -10.416  14.587  33.976  1.00 19.61    -0.346 N 
HETATM   28  H5  0Q4 A 125     -10.578  15.420  34.472  1.00 15.00     0.163 HD
BRANCH  27  29
HETATM   29  CA5 0Q4 A 125     -11.516  13.667  33.786  1.00 21.82     0.172 C 
HETATM   30  CB5 0Q4 A 125     -12.496  13.848  34.930  1.00 22.24     0.042 C 
BRANCH  29  31
HETATM   31  C5  0Q4 A 125     -12.279  13.761  32.440  1.00 24.09     0.240 C 
HETATM   32  O4  0Q4 A 125     -12.365  12.801  31.671  1.00 20.88    -0.271 OA
HETATM   33  N6  0Q4 A 125     -12.776  14.963  32.167  1.00 27.66    -0.346 N 
HETATM   34  H6  0Q4 A 125     -12.628  15.675  32.813  1.00 15.00     0.163 HD
BRANCH  33  35
HETATM   35  CA6 0Q4 A 125     -13.456  15.300  30.924  1.00 31.09     0.176 C 
BRANCH  35  36
HETATM   36  C6  0Q4 A 125     -12.382  15.900  30.000  1.00 33.78     0.238 C 
HETATM   37  O5  0Q4 A 125     -11.695  15.151  29.246  1.00 34.60    -0.271 OA
HETATM   38  N7  0Q4 A 125     -12.218  17.143  30.072  1.00 36.53    -0.368 N 
HETATM   39  H72 0Q4 A 125     -12.772  17.748  30.679  1.00  0.00     0.159 HD
HETATM   40  H71 0Q4 A 125     -11.506  17.541  29.459  1.00  0.00     0.159 HD
ENDBRANCH  35  36
BRANCH  35  41
HETATM   41  CB6 0Q4 A 125     -14.548  16.359  31.224  1.00 32.55     0.035 C 
BRANCH  41  42
HETATM   42  CG6 0Q4 A 125     -15.160  16.383  32.669  1.00 32.73     0.002 C 
BRANCH  42  43
HETATM   43  CD4 0Q4 A 125     -14.989  17.754  33.433  1.00 31.59    -0.004 C 
HETATM   44  CE  0Q4 A 125     -13.593  18.311  33.244  1.00 23.29     0.005 C 
ENDBRANCH  42  43
ENDBRANCH  41  42
ENDBRANCH  35  41
ENDBRANCH  33  35
ENDBRANCH  29  31
ENDBRANCH  27  29
ENDBRANCH  24  25
BRANCH  24  45
HETATM   45  CB4 0Q4 A 125      -7.868  16.194  32.487  1.00 17.07     0.045 C 
BRANCH  45  46
HETATM   46  CG5 0Q4 A 125      -6.655  15.813  31.660  1.00 18.50     0.116 C 
BRANCH  46  47
HETATM   47  CD3 0Q4 A 125      -7.013  15.038  30.384  1.00 26.68     0.172 C 
HETATM   48  OE1 0Q4 A 125      -6.092  14.550  29.703  1.00 29.71    -0.648 OA
HETATM   49  OE2 0Q4 A 125      -8.218  14.901  30.045  1.00 31.35    -0.648 OA
ENDBRANCH  46  47
ENDBRANCH  45  46
ENDBRANCH  24  45
ENDBRANCH  22  24
ENDBRANCH  19  20
BRANCH  19  50
HETATM   50  CB3 0Q4 A 125      -4.080  15.475  36.859  1.00 18.22     0.073 C 
BRANCH  50  51
HETATM   51  CG4 0Q4 A 125      -2.688  15.030  37.079  1.00 21.59    -0.056 A 
HETATM   52  CD1 0Q4 A 125      -1.653  15.953  37.156  1.00 22.99     0.007 A 
HETATM   53  CE1 0Q4 A 125      -0.325  15.540  37.411  1.00 24.00     0.001 A 
HETATM   54  CZ1 0Q4 A 125      -0.030  14.183  37.582  1.00 25.64     0.000 A 
HETATM   55  CE2 0Q4 A 125      -1.058  13.246  37.496  1.00 27.27     0.001 A 
HETATM   56  CD2 0Q4 A 125      -2.394  13.681  37.243  1.00 24.65     0.007 A 
ENDBRANCH  50  51
ENDBRANCH  19  50
ENDBRANCH  17  19
ENDBRANCH  15  16
BRANCH  15  57
HETATM   57  CB2 0Q4 A 125      -1.408  17.180  33.177  1.00 19.32     0.034 C 
BRANCH  57  58
HETATM   58  CG3 0Q4 A 125      -0.110  16.323  33.187  1.00 21.12    -0.020 C 
HETATM   59  CD1 0Q4 A 125       0.916  16.803  34.213  1.00 21.22     0.009 C 
HETATM   60  CD2 0Q4 A 125      -0.451  14.867  33.444  1.00 17.47     0.009 C 
ENDBRANCH  57  58
ENDBRANCH  15  57
ENDBRANCH  13  15
ENDBRANCH  10  11
BRANCH  10  61
HETATM   61  CB1 0Q4 A 125      -2.333  17.835  28.276  1.00 19.28     0.009 C 
HETATM   62  CG1 0Q4 A 125      -2.466  17.620  26.767  1.00 20.08     0.012 C 
HETATM   63  CG2 0Q4 A 125      -2.456  19.348  28.548  1.00 19.54     0.012 C 
ENDBRANCH  10  61
ENDBRANCH   8  10
ENDBRANCH   5   6
BRANCH   5  64
HETATM   64  CB  0Q4 A 125      -7.570  19.491  27.786  1.00 21.80     0.044 C 
BRANCH  64  65
HETATM   65  CG  0Q4 A 125      -8.988  18.894  27.491  1.00 26.69     0.023 C 
BRANCH  65  66
HETATM   66  CD  0Q4 A 125      -9.287  17.487  28.120  1.00 29.76     0.138 C 
BRANCH  66  67
HETATM   67  NE  0Q4 A 125      -9.857  16.504  27.189  1.00 32.26    -0.227 N 
HETATM   68  CZ  0Q4 A 125      -9.195  15.457  26.691  1.00 34.72     0.665 C 
HETATM   69  NH1 0Q4 A 125      -7.940  15.250  27.052  1.00 35.07    -0.235 N 
HETATM   70  NH2 0Q4 A 125      -9.744  14.687  25.739  1.00 35.86    -0.235 N 
HETATM   71 HH11 0Q4 A 125      -7.494  15.870  27.695  1.00 15.00     0.174 HD
HETATM   72 HH12 0Q4 A 125      -7.434  14.468  26.684  1.00 15.00     0.174 HD
HETATM   73 HH21 0Q4 A 125     -10.658  14.886  25.391  1.00 15.00     0.174 HD
HETATM   74 HH22 0Q4 A 125      -9.227  13.908  25.378  1.00 15.00     0.174 HD
HETATM   75  HE  0Q4 A 125     -10.791  16.615  26.905  1.00 15.00     0.177 HD
ENDBRANCH  66  67
ENDBRANCH  65  66
ENDBRANCH  64  65
ENDBRANCH   5  64
ENDBRANCH   1   5
TORSDOF 29
ENDMDL
MODEL 2
REMARK VINA RESULT:      -5.6      2.751      9.302
REMARK  29 active torsions:
REMARK  status: ('A' for Active; 'I' for Inactive)
REMARK    1  A    between atoms: N_1  and  CA_2 
REMARK    2  A    between atoms: CA_2  and  C_4 
REMARK    3  A    between atoms: CA_2  and  CB_6 
REMARK       I    between atoms: C_4  and  N1_19 
REMARK    4  A    between atoms: CB_6  and  CG_9 
REMARK    5  A    between atoms: CG_9  and  CD_12 
REMARK    6  A    between atoms: CD_12  and  NE_15 
REMARK       I    between atoms: NE_15  and  CZ_16 
REMARK       I    between atoms: CZ_16  and  NH1_17 
REMARK    7  A    between atoms: N1_19  and  CA1_20 
REMARK    8  A    between atoms: CA1_20  and  C1_22 
REMARK    9  A    between atoms: CA1_20  and  CB1_24 
REMARK       I    between atoms: C1_22  and  N2_34 
REMARK   10  A    between atoms: N2_34  and  CA2_35 
REMARK   11  A    between atoms: CA2_35  and  C2_37 
REMARK   12  A    between atoms: CA2_35  and  CB2_39 
REMARK   13  A    between atoms: CB2_39  and  CG3_42 
REMARK   14  A    between atoms: N3_52  and  CA3_53 
REMARK   15  A    between atoms: CA3_53  and  C3_55 
REMARK   16  A    between atoms: CA3_53  and  CB3_57 
REMARK       I    between atoms: C3_55  and  N4_71 
REMARK   17  A    between atoms: CB3_57  and  CG4_60 
REMARK   18  A    between atoms: N4_71  and  CA4_72 
REMARK   19  A    between atoms: CA4_72  and  C4_74 
REMARK   20  A    between atoms: CA4_72  and  CB4_76 
REMARK       I    between atoms: C4_74  and  N5_85 
REMARK   21  A    between atoms: CB4_76  and  CG5_79 
REMARK   22  A    between atoms: CG5_79  and  CD3_82 
REMARK   23  A    between atoms: N5_85  and  CA5_86 
REMARK   24  A    between atoms: CA5_86  and  C5_88 
REMARK       I    between atoms: C5_88  and  N6_94 
REMARK   25  A    between atoms: N6_94  and  CA6_95 
REMARK   26  A    between atoms: CA6_95  and  C6_97 
REMARK   27  A    between atoms: CA6_95  and  CB6_99 
REMARK       I    between atoms: C6_97  and  N7_112 
REMARK   28  A    between atoms: CB6_99  and  CG6_102 
REMARK   29  A    between atoms: CG6_102  and  CD4_105 
ROOT
HETATM    1  N   0Q4 A 125     -12.050  16.235  33.493  1.00 21.27    -0.067 N 
HETATM    2  H   0Q4 A 125     -13.073  16.133  33.440  1.00 15.00     0.275 HD
HETATM    3  H2  0Q4 A 125     -11.762  16.640  34.419  1.00 15.00     0.275 HD
HETATM    4  HN3 0Q4 A 125     -11.739  16.855  32.728  1.00 15.00     0.275 HD
ENDROOT
BRANCH   1   5
HETATM    5  CA  0Q4 A 125     -11.364  14.910  33.401  1.00 21.76     0.274 C 
BRANCH   5   6
HETATM    6  C   0Q4 A 125     -11.174  14.541  31.895  1.00 21.89     0.249 C 
HETATM    7  O   0Q4 A 125     -11.698  13.512  31.428  1.00 22.48    -0.271 OA
HETATM    8  N1  0Q4 A 125     -10.488  15.414  31.139  1.00 19.10    -0.346 N 
HETATM    9  H1  0Q4 A 125     -10.071  16.211  31.530  1.00 15.00     0.163 HD
BRANCH   8  10
HETATM   10  CA1 0Q4 A 125     -10.275  15.236  29.701  1.00 18.90     0.180 C 
BRANCH  10  11
HETATM   11  C1  0Q4 A 125      -8.827  15.597  29.279  1.00 17.14     0.241 C 
HETATM   12  O1  0Q4 A 125      -8.317  15.176  28.248  1.00 18.87    -0.271 OA
HETATM   13  N2  0Q4 A 125      -8.124  16.295  30.153  1.00 17.78    -0.350 N 
HETATM   14  HN2 0Q4 A 125      -8.526  16.547  31.014  1.00 15.00     0.163 HD
BRANCH  13  15
HETATM   15  CA2 0Q4 A 125      -6.782  16.749  29.842  1.00 17.96     0.123 C 
BRANCH  15  16
HETATM   16  C2  0Q4 A 125      -5.638  15.983  30.495  1.00 17.56     0.081 C 
HETATM   17  N3  0Q4 A 125      -4.650  16.722  30.967  1.00 16.64    -0.387 N 
HETATM   18  H3  0Q4 A 125      -4.710  17.690  30.862  1.00 15.00     0.159 HD
BRANCH  17  19
HETATM   19  CA3 0Q4 A 125      -3.485  16.167  31.665  1.00 16.89     0.177 C 
BRANCH  19  20
HETATM   20  C3  0Q4 A 125      -3.777  16.365  33.179  1.00 15.06     0.241 C 
HETATM   21  O2  0Q4 A 125      -3.540  17.448  33.720  1.00 12.51    -0.271 OA
HETATM   22  N4  0Q4 A 125      -4.387  15.360  33.808  1.00 14.54    -0.346 N 
HETATM   23  H4  0Q4 A 125      -4.549  14.514  33.338  1.00 15.00     0.163 HD
BRANCH  22  24
HETATM   24  CA4 0Q4 A 125      -4.797  15.430  35.214  1.00 15.81     0.177 C 
BRANCH  24  25
HETATM   25  C4  0Q4 A 125      -4.090  14.455  36.161  1.00 17.52     0.241 C 
HETATM   26  O3  0Q4 A 125      -3.829  14.753  37.329  1.00 17.50    -0.271 OA
HETATM   27  N5  0Q4 A 125      -3.640  13.345  35.601  1.00 19.61    -0.346 N 
HETATM   28  H5  0Q4 A 125      -3.765  13.185  34.640  1.00 15.00     0.163 HD
BRANCH  27  29
HETATM   29  CA5 0Q4 A 125      -2.960  12.339  36.388  1.00 21.82     0.172 C 
HETATM   30  CB5 0Q4 A 125      -2.500  11.232  35.458  1.00 22.24     0.042 C 
BRANCH  29  31
HETATM   31  C5  0Q4 A 125      -1.761  12.816  37.246  1.00 24.09     0.240 C 
HETATM   32  O4  0Q4 A 125      -1.579  12.411  38.396  1.00 20.88    -0.271 OA
HETATM   33  N6  0Q4 A 125      -0.992  13.730  36.663  1.00 27.66    -0.346 N 
HETATM   34  H6  0Q4 A 125      -1.230  14.023  35.767  1.00 15.00     0.163 HD
BRANCH  33  35
HETATM   35  CA6 0Q4 A 125       0.139  14.379  37.314  1.00 31.09     0.176 C 
BRANCH  35  36
HETATM   36  C6  0Q4 A 125       0.011  15.878  36.995  1.00 33.78     0.238 C 
HETATM   37  O5  0Q4 A 125       0.997  16.654  37.162  1.00 34.60    -0.271 OA
HETATM   38  N7  0Q4 A 125      -1.116  16.269  36.602  1.00 36.53    -0.368 N 
HETATM   39  H72 0Q4 A 125      -1.910  15.644  36.466  1.00  0.00     0.159 HD
HETATM   40  H71 0Q4 A 125      -1.200  17.263  36.390  1.00  0.00     0.159 HD
ENDBRANCH  35  36
BRANCH  35  41
HETATM   41  CB6 0Q4 A 125       1.452  13.818  36.710  1.00 32.55     0.035 C 
BRANCH  41  42
HETATM   42  CG6 0Q4 A 125       1.334  12.885  35.454  1.00 32.73     0.002 C 
BRANCH  42  43
HETATM   43  CD4 0Q4 A 125       1.878  11.418  35.671  1.00 31.59    -0.004 C 
HETATM   44  CE  0Q4 A 125       1.336  10.821  36.953  1.00 23.29     0.005 C 
ENDBRANCH  42  43
ENDBRANCH  41  42
ENDBRANCH  35  41
ENDBRANCH  33  35
ENDBRANCH  29  31
ENDBRANCH  27  29
ENDBRANCH  24  25
BRANCH  24  45
HETATM   45  CB4 0Q4 A 125      -6.335  15.226  35.308  1.00 17.07     0.045 C 
BRANCH  45  46
HETATM   46  CG5 0Q4 A 125      -7.208  16.464  35.243  1.00 18.50     0.116 C 
BRANCH  46  47
HETATM   47  CD3 0Q4 A 125      -7.435  16.967  33.809  1.00 26.68     0.172 C 
HETATM   48  OE1 0Q4 A 125      -8.380  16.491  33.153  1.00 29.71    -0.648 OA
HETATM   49  OE2 0Q4 A 125      -6.677  17.846  33.321  1.00 31.35    -0.648 OA
ENDBRANCH  46  47
ENDBRANCH  45  46
ENDBRANCH  24  45
ENDBRANCH  22  24
ENDBRANCH  19  20
BRANCH  19  50
HETATM   50  CB3 0Q4 A 125      -2.226  16.895  31.106  1.00 18.22     0.073 C 
BRANCH  50  51
HETATM   51  CG4 0Q4 A 125      -1.020  16.813  31.957  1.00 21.59    -0.056 A 
HETATM   52  CD1 0Q4 A 125      -0.327  17.961  32.315  1.00 22.99     0.007 A 
HETATM   53  CE1 0Q4 A 125       0.801  17.896  33.166  1.00 24.00     0.001 A 
HETATM   54  CZ1 0Q4 A 125       1.244  16.663  33.656  1.00 25.64     0.000 A 
HETATM   55  CE2 0Q4 A 125       0.563  15.501  33.295  1.00 27.27     0.001 A 
HETATM   56  CD2 0Q4 A 125      -0.577  15.585  32.438  1.00 24.65     0.007 A 
ENDBRANCH  50  51
ENDBRANCH  19  50
ENDBRANCH  17  19
ENDBRANCH  15  16
BRANCH  15  57
HETATM   57  CB2 0Q4 A 125      -6.678  18.274  30.089  1.00 19.32     0.034 C 
BRANCH  57  58
HETATM   58  CG3 0Q4 A 125      -6.435  19.136  28.818  1.00 21.12    -0.020 C 
HETATM   59  CD1 0Q4 A 125      -5.011  19.018  28.278  1.00 21.22     0.009 C 
HETATM   60  CD2 0Q4 A 125      -7.428  18.755  27.735  1.00 17.47     0.009 C 
ENDBRANCH  57  58
ENDBRANCH  15  57
ENDBRANCH  13  15
ENDBRANCH  10  11
BRANCH  10  61
HETATM   61  CB1 0Q4 A 125     -11.418  16.016  28.869  1.00 19.28     0.009 C 
HETATM   62  CG1 0Q4 A 125     -10.830  17.139  28.011  1.00 20.08     0.012 C 
HETATM   63  CG2 0Q4 A 125     -12.163  15.047  27.928  1.00 19.54     0.012 C 
ENDBRANCH  10  61
ENDBRANCH   8  10
ENDBRANCH   5   6
BRANCH   5  64
HETATM   64  CB  0Q4 A 125     -12.184  13.868  34.172  1.00 21.80     0.044 C 
BRANCH  64  65
HETATM   65  CG  0Q4 A 125     -12.307  14.069  35.722  1.00 26.69     0.023 C 
BRANCH  65  66
HETATM   66  CD  0Q4 A 125     -13.666  14.666  36.232  1.00 29.76     0.138 C 
BRANCH  66  67
HETATM   67  NE  0Q4 A 125     -13.566  16.006  36.826  1.00 32.26    -0.227 N 
HETATM   68  CZ  0Q4 A 125     -14.353  16.465  37.802  1.00 34.72     0.665 C 
HETATM   69  NH1 0Q4 A 125     -15.288  15.679  38.307  1.00 35.07    -0.235 N 
HETATM   70  NH2 0Q4 A 125     -14.289  17.748  38.190  1.00 35.86    -0.235 N 
HETATM   71 HH11 0Q4 A 125     -15.401  14.748  37.963  1.00 15.00     0.174 HD
HETATM   72 HH12 0Q4 A 125     -15.883  16.014  39.039  1.00 15.00     0.174 HD
HETATM   73 HH21 0Q4 A 125     -13.648  18.378  37.754  1.00 15.00     0.174 HD
HETATM   74 HH22 0Q4 A 125     -14.890  18.071  38.923  1.00 15.00     0.174 HD
HETATM   75  HE  0Q4 A 125     -12.876  16.618  36.486  1.00 15.00     0.177 HD
ENDBRANCH  66  67
ENDBRANCH  65  66
ENDBRANCH  64  65
ENDBRANCH   5  64
ENDBRANCH   1   5
TORSDOF 29
ENDMDL
MODEL 3
REMARK VINA RESULT:      -5.6      3.362     10.627
REMARK  29 active torsions:
REMARK  status: ('A' for Active; 'I' for Inactive)
REMARK    1  A    between atoms: N_1  and  CA_2 
REMARK    2  A    between atoms: CA_2  and  C_4 
REMARK    3  A    between atoms: CA_2  and  CB_6 
REMARK       I    between atoms: C_4  and  N1_19 
REMARK    4  A    between atoms: CB_6  and  CG_9 
REMARK    5  A    between atoms: CG_9  and  CD_12 
REMARK    6  A    between atoms: CD_12  and  NE_15 
REMARK       I    between atoms: NE_15  and  CZ_16 
REMARK       I    between atoms: CZ_16  and  NH1_17 
REMARK    7  A    between atoms: N1_19  and  CA1_20 
REMARK    8  A    between atoms: CA1_20  and  C1_22 
REMARK    9  A    between atoms: CA1_20  and  CB1_24 
REMARK       I    between atoms: C1_22  and  N2_34 
REMARK   10  A    between atoms: N2_34  and  CA2_35 
REMARK   11  A    between atoms: CA2_35  and  C2_37 
REMARK   12  A    between atoms: CA2_35  and  CB2_39 
REMARK   13  A    between atoms: CB2_39  and  CG3_42 
REMARK   14  A    between atoms: N3_52  and  CA3_53 
REMARK   15  A    between atoms: CA3_53  and  C3_55 
REMARK   16  A    between atoms: CA3_53  and  CB3_57 
REMARK       I    between atoms: C3_55  and  N4_71 
REMARK   17  A    between atoms: CB3_57  and  CG4_60 
REMARK   18  A    between atoms: N4_71  and  CA4_72 
REMARK   19  A    between atoms: CA4_72  and  C4_74 
REMARK   20  A    between atoms: CA4_72  and  CB4_76 
REMARK       I    between atoms: C4_74  and  N5_85 
REMARK   21  A    between atoms: CB4_76  and  CG5_79 
REMARK   22  A    between atoms: CG5_79  and  CD3_82 
REMARK   23  A    between atoms: N5_85  and  CA5_86 
REMARK   24  A    between atoms: CA5_86  and  C5_88 
REMARK       I    between atoms: C5_88  and  N6_94 
REMARK   25  A    between atoms: N6_94  and  CA6_95 
REMARK   26  A    between atoms: CA6_95  and  C6_97 
REMARK   27  A    between atoms: CA6_95  and  CB6_99 
REMARK       I    between atoms: C6_97  and  N7_112 
REMARK   28  A    between atoms: CB6_99  and  CG6_102 
REMARK   29  A    between atoms: CG6_102  and  CD4_105 
ROOT
HETATM    1  N   0Q4 A 125     -14.805  17.909  36.517  1.00 21.27    -0.067 N 
HETATM    2  H   0Q4 A 125     -14.764  17.594  35.538  1.00 15.00     0.275 HD
HETATM    3  H2  0Q4 A 125     -15.801  18.053  36.823  1.00 15.00     0.275 HD
HETATM    4  HN3 0Q4 A 125     -14.282  18.795  36.603  1.00 15.00     0.275 HD
ENDROOT
BRANCH   1   5
HETATM    5  CA  0Q4 A 125     -14.243  16.881  37.446  1.00 21.76     0.274 C 
BRANCH   5   6
HETATM    6  C   0Q4 A 125     -14.283  15.487  36.742  1.00 21.89     0.249 C 
HETATM    7  O   0Q4 A 125     -14.253  14.440  37.416  1.00 22.48    -0.271 OA
HETATM    8  N1  0Q4 A 125     -14.420  15.486  35.406  1.00 19.10    -0.346 N 
HETATM    9  H1  0Q4 A 125     -14.427  16.322  34.893  1.00 15.00     0.163 HD
BRANCH   8  10
HETATM   10  CA1 0Q4 A 125     -14.529  14.262  34.611  1.00 18.90     0.180 C 
BRANCH  10  11
HETATM   11  C1  0Q4 A 125     -13.271  14.021  33.736  1.00 17.14     0.241 C 
HETATM   12  O1  0Q4 A 125     -12.807  12.905  33.542  1.00 18.87    -0.271 OA
HETATM   13  N2  0Q4 A 125     -12.651  15.104  33.301  1.00 17.78    -0.350 N 
HETATM   14  HN2 0Q4 A 125     -12.992  15.993  33.543  1.00 15.00     0.163 HD
BRANCH  13  15
HETATM   15  CA2 0Q4 A 125     -11.503  15.005  32.420  1.00 17.96     0.123 C 
BRANCH  15  16
HETATM   16  C2  0Q4 A 125     -10.132  15.064  33.082  1.00 17.56     0.081 C 
HETATM   17  N3  0Q4 A 125      -9.460  16.188  32.907  1.00 16.64    -0.387 N 
HETATM   18  H3  0Q4 A 125      -9.871  16.890  32.368  1.00 15.00     0.159 HD
BRANCH  17  19
HETATM   19  CA3 0Q4 A 125      -8.143  16.446  33.502  1.00 16.89     0.177 C 
BRANCH  19  20
HETATM   20  C3  0Q4 A 125      -7.187  16.685  32.300  1.00 15.06     0.241 C 
HETATM   21  O2  0Q4 A 125      -6.982  17.829  31.888  1.00 12.51    -0.271 OA
HETATM   22  N4  0Q4 A 125      -6.534  15.621  31.832  1.00 14.54    -0.346 N 
HETATM   23  H4  0Q4 A 125      -6.735  14.728  32.187  1.00 15.00     0.163 HD
BRANCH  22  24
HETATM   24  CA4 0Q4 A 125      -5.542  15.701  30.756  1.00 15.81     0.177 C 
BRANCH  24  25
HETATM   25  C4  0Q4 A 125      -4.176  16.271  31.152  1.00 17.52     0.241 C 
HETATM   26  O3  0Q4 A 125      -3.487  16.923  30.364  1.00 17.50    -0.271 OA
HETATM   27  N5  0Q4 A 125      -3.719  15.884  32.331  1.00 19.61    -0.346 N 
HETATM   28  H5  0Q4 A 125      -4.243  15.270  32.891  1.00 15.00     0.163 HD
BRANCH  27  29
HETATM   29  CA5 0Q4 A 125      -2.444  16.356  32.825  1.00 21.82     0.172 C 
HETATM   30  CB5 0Q4 A 125      -2.701  17.381  33.914  1.00 22.24     0.042 C 
BRANCH  29  31
HETATM   31  C5  0Q4 A 125      -1.460  15.283  33.356  1.00 24.09     0.240 C 
HETATM   32  O4  0Q4 A 125      -0.383  15.054  32.801  1.00 20.88    -0.271 OA
HETATM   33  N6  0Q4 A 125      -1.898  14.603  34.410  1.00 27.66    -0.346 N 
HETATM   34  H6  0Q4 A 125      -2.778  14.822  34.762  1.00 15.00     0.163 HD
BRANCH  33  35
HETATM   35  CA6 0Q4 A 125      -1.178  13.494  35.022  1.00 31.09     0.176 C 
BRANCH  35  36
HETATM   36  C6  0Q4 A 125      -2.236  12.429  35.354  1.00 33.78     0.238 C 
HETATM   37  O5  0Q4 A 125      -3.466  12.730  35.365  1.00 34.60    -0.271 OA
HETATM   38  N7  0Q4 A 125      -1.804  11.285  35.638  1.00 36.53    -0.368 N 
HETATM   39  H72 0Q4 A 125      -0.813  11.041  35.629  1.00  0.00     0.159 HD
HETATM   40  H71 0Q4 A 125      -2.506  10.578  35.858  1.00  0.00     0.159 HD
ENDBRANCH  35  36
BRANCH  35  41
HETATM   41  CB6 0Q4 A 125      -0.504  13.996  36.325  1.00 32.55     0.035 C 
BRANCH  41  42
HETATM   42  CG6 0Q4 A 125      -1.325  14.972  37.240  1.00 32.73     0.002 C 
BRANCH  42  43
HETATM   43  CD4 0Q4 A 125      -0.783  16.455  37.273  1.00 31.59    -0.004 C 
HETATM   44  CE  0Q4 A 125       0.388  16.627  36.328  1.00 23.29     0.005 C 
ENDBRANCH  42  43
ENDBRANCH  41  42
ENDBRANCH  35  41
ENDBRANCH  33  35
ENDBRANCH  29  31
ENDBRANCH  27  29
ENDBRANCH  24  25
BRANCH  24  45
HETATM   45  CB4 0Q4 A 125      -6.131  16.528  29.579  1.00 17.07     0.045 C 
BRANCH  45  46
HETATM   46  CG5 0Q4 A 125      -6.289  15.826  28.244  1.00 18.50     0.116 C 
BRANCH  46  47
HETATM   47  CD3 0Q4 A 125      -7.755  15.559  27.872  1.00 26.68     0.172 C 
HETATM   48  OE1 0Q4 A 125      -8.020  15.190  26.713  1.00 29.71    -0.648 OA
HETATM   49  OE2 0Q4 A 125      -8.663  15.712  28.733  1.00 31.35    -0.648 OA
ENDBRANCH  46  47
ENDBRANCH  45  46
ENDBRANCH  24  45
ENDBRANCH  22  24
ENDBRANCH  19  20
BRANCH  19  50
HETATM   50  CB3 0Q4 A 125      -7.807  15.232  34.418  1.00 18.22     0.073 C 
BRANCH  50  51
HETATM   51  CG4 0Q4 A 125      -6.950  15.539  35.583  1.00 21.59    -0.056 A 
HETATM   52  CD1 0Q4 A 125      -5.570  15.415  35.499  1.00 22.99     0.007 A 
HETATM   53  CE1 0Q4 A 125      -4.740  15.750  36.594  1.00 24.00     0.001 A 
HETATM   54  CZ1 0Q4 A 125      -5.303  16.207  37.790  1.00 25.64     0.000 A 
HETATM   55  CE2 0Q4 A 125      -6.688  16.326  37.890  1.00 27.27     0.001 A 
HETATM   56  CD2 0Q4 A 125      -7.511  15.987  36.774  1.00 24.65     0.007 A 
ENDBRANCH  50  51
ENDBRANCH  19  50
ENDBRANCH  17  19
ENDBRANCH  15  16
BRANCH  15  57
HETATM   57  CB2 0Q4 A 125     -11.640  16.032  31.270  1.00 19.32     0.034 C 
BRANCH  57  58
HETATM   58  CG3 0Q4 A 125     -13.093  16.287  30.779  1.00 21.12    -0.020 C 
HETATM   59  CD1 0Q4 A 125     -13.349  17.743  30.395  1.00 21.22     0.009 C 
HETATM   60  CD2 0Q4 A 125     -13.408  15.382  29.602  1.00 17.47     0.009 C 
ENDBRANCH  57  58
ENDBRANCH  15  57
ENDBRANCH  13  15
ENDBRANCH  10  11
BRANCH  10  61
HETATM   61  CB1 0Q4 A 125     -15.916  14.257  33.784  1.00 19.28     0.009 C 
HETATM   62  CG1 0Q4 A 125     -17.132  14.274  34.714  1.00 20.08     0.012 C 
HETATM   63  CG2 0Q4 A 125     -16.009  15.494  32.868  1.00 19.54     0.012 C 
ENDBRANCH  10  61
ENDBRANCH   8  10
ENDBRANCH   5   6
BRANCH   5  64
HETATM   64  CB  0Q4 A 125     -15.033  16.909  38.761  1.00 21.80     0.044 C 
BRANCH  64  65
HETATM   65  CG  0Q4 A 125     -16.099  18.045  38.923  1.00 26.69     0.023 C 
BRANCH  65  66
HETATM   66  CD  0Q4 A 125     -15.647  19.302  39.746  1.00 29.76     0.138 C 
BRANCH  66  67
HETATM   67  NE  0Q4 A 125     -14.274  19.238  40.265  1.00 32.26    -0.227 N 
HETATM   68  CZ  0Q4 A 125     -13.214  19.804  39.684  1.00 34.72     0.665 C 
HETATM   69  NH1 0Q4 A 125     -13.376  20.493  38.566  1.00 35.07    -0.235 N 
HETATM   70  NH2 0Q4 A 125     -11.975  19.579  40.147  1.00 35.86    -0.235 N 
HETATM   71 HH11 0Q4 A 125     -14.285  20.592  38.166  1.00 15.00     0.174 HD
HETATM   72 HH12 0Q4 A 125     -12.587  20.921  38.122  1.00 15.00     0.174 HD
HETATM   73 HH21 0Q4 A 125     -11.828  18.987  40.937  1.00 15.00     0.174 HD
HETATM   74 HH22 0Q4 A 125     -11.194  20.013  39.692  1.00 15.00     0.174 HD
HETATM   75  HE  0Q4 A 125     -14.112  18.745  41.100  1.00 15.00     0.177 HD
ENDBRANCH  66  67
ENDBRANCH  65  66
ENDBRANCH  64  65
ENDBRANCH   5  64
ENDBRANCH   1   5
TORSDOF 29
ENDMDL
MODEL 4
REMARK VINA RESULT:      -5.6      2.618      9.493
REMARK  29 active torsions:
REMARK  status: ('A' for Active; 'I' for Inactive)
REMARK    1  A    between atoms: N_1  and  CA_2 
REMARK    2  A    between atoms: CA_2  and  C_4 
REMARK    3  A    between atoms: CA_2  and  CB_6 
REMARK       I    between atoms: C_4  and  N1_19 
REMARK    4  A    between atoms: CB_6  and  CG_9 
REMARK    5  A    between atoms: CG_9  and  CD_12 
REMARK    6  A    between atoms: CD_12  and  NE_15 
REMARK       I    between atoms: NE_15  and  CZ_16 
REMARK       I    between atoms: CZ_16  and  NH1_17 
REMARK    7  A    between atoms: N1_19  and  CA1_20 
REMARK    8  A    between atoms: CA1_20  and  C1_22 
REMARK    9  A    between atoms: CA1_20  and  CB1_24 
REMARK       I    between atoms: C1_22  and  N2_34 
REMARK   10  A    between atoms: N2_34  and  CA2_35 
REMARK   11  A    between atoms: CA2_35  and  C2_37 
REMARK   12  A    between atoms: CA2_35  and  CB2_39 
REMARK   13  A    between atoms: CB2_39  and  CG3_42 
REMARK   14  A    between atoms: N3_52  and  CA3_53 
REMARK   15  A    between atoms: CA3_53  and  C3_55 
REMARK   16  A    between atoms: CA3_53  and  CB3_57 
REMARK       I    between atoms: C3_55  and  N4_71 
REMARK   17  A    between atoms: CB3_57  and  CG4_60 
REMARK   18  A    between atoms: N4_71  and  CA4_72 
REMARK   19  A    between atoms: CA4_72  and  C4_74 
REMARK   20  A    between atoms: CA4_72  and  CB4_76 
REMARK       I    between atoms: C4_74  and  N5_85 
REMARK   21  A    between atoms: CB4_76  and  CG5_79 
REMARK   22  A    between atoms: CG5_79  and  CD3_82 
REMARK   23  A    between atoms: N5_85  and  CA5_86 
REMARK   24  A    between atoms: CA5_86  and  C5_88 
REMARK       I    between atoms: C5_88  and  N6_94 
REMARK   25  A    between atoms: N6_94  and  CA6_95 
REMARK   26  A    between atoms: CA6_95  and  C6_97 
REMARK   27  A    between atoms: CA6_95  and  CB6_99 
REMARK       I    between atoms: C6_97  and  N7_112 
REMARK   28  A    between atoms: CB6_99  and  CG6_102 
REMARK   29  A    between atoms: CG6_102  and  CD4_105 
ROOT
HETATM    1  N   0Q4 A 125     -11.628  16.899  33.117  1.00 21.27    -0.067 N 
HETATM    2  H   0Q4 A 125     -11.089  17.251  32.314  1.00 15.00     0.275 HD
HETATM    3  H2  0Q4 A 125     -12.653  17.095  32.996  1.00 15.00     0.275 HD
HETATM    4  HN3 0Q4 A 125     -11.283  17.358  33.975  1.00 15.00     0.275 HD
ENDROOT
BRANCH   1   5
HETATM    5  CA  0Q4 A 125     -11.514  15.413  33.241  1.00 21.76     0.274 C 
BRANCH   5   6
HETATM    6  C   0Q4 A 125     -11.245  14.806  31.826  1.00 21.89     0.249 C 
HETATM    7  O   0Q4 A 125     -11.534  13.619  31.586  1.00 22.48    -0.271 OA
HETATM    8  N1  0Q4 A 125     -10.762  15.640  30.891  1.00 19.10    -0.346 N 
HETATM    9  H1  0Q4 A 125     -10.528  16.568  31.106  1.00 15.00     0.163 HD
BRANCH   8  10
HETATM   10  CA1 0Q4 A 125     -10.512  15.234  29.507  1.00 18.90     0.180 C 
BRANCH  10  11
HETATM   11  C1  0Q4 A 125      -9.037  15.469  29.089  1.00 17.14     0.241 C 
HETATM   12  O1  0Q4 A 125      -8.570  15.034  28.044  1.00 18.87    -0.271 OA
HETATM   13  N2  0Q4 A 125      -8.269  16.069  29.981  1.00 17.78    -0.350 N 
HETATM   14  HN2 0Q4 A 125      -8.644  16.332  30.852  1.00 15.00     0.163 HD
BRANCH  13  15
HETATM   15  CA2 0Q4 A 125      -6.890  16.403  29.679  1.00 17.96     0.123 C 
BRANCH  15  16
HETATM   16  C2  0Q4 A 125      -5.821  15.583  30.390  1.00 17.56     0.081 C 
HETATM   17  N3  0Q4 A 125      -4.767  16.259  30.811  1.00 16.64    -0.387 N 
HETATM   18  H3  0Q4 A 125      -4.736  17.218  30.635  1.00 15.00     0.159 HD
BRANCH  17  19
HETATM   19  CA3 0Q4 A 125      -3.657  15.650  31.552  1.00 16.89     0.177 C 
BRANCH  19  20
HETATM   20  C3  0Q4 A 125      -3.852  16.094  33.028  1.00 15.06     0.241 C 
HETATM   21  O2  0Q4 A 125      -3.417  17.182  33.412  1.00 12.51    -0.271 OA
HETATM   22  N4  0Q4 A 125      -4.599  15.302  33.799  1.00 14.54    -0.346 N 
HETATM   23  H4  0Q4 A 125      -4.919  14.441  33.452  1.00 15.00     0.163 HD
BRANCH  22  24
HETATM   24  CA4 0Q4 A 125      -4.936  15.626  35.188  1.00 15.81     0.177 C 
BRANCH  24  25
HETATM   25  C4  0Q4 A 125      -4.052  14.976  36.256  1.00 17.52     0.241 C 
HETATM   26  O3  0Q4 A 125      -3.788  15.543  37.319  1.00 17.50    -0.271 OA
HETATM   27  N5  0Q4 A 125      -3.465  13.846  35.898  1.00 19.61    -0.346 N 
HETATM   28  H5  0Q4 A 125      -3.606  13.475  34.999  1.00 15.00     0.163 HD
BRANCH  27  29
HETATM   29  CA5 0Q4 A 125      -2.609  13.129  36.818  1.00 21.82     0.172 C 
HETATM   30  CB5 0Q4 A 125      -2.745  11.644  36.540  1.00 22.24     0.042 C 
BRANCH  29  31
HETATM   31  C5  0Q4 A 125      -1.108  13.514  36.819  1.00 24.09     0.240 C 
HETATM   32  O4  0Q4 A 125      -0.258  12.821  37.381  1.00 20.88    -0.271 OA
HETATM   33  N6  0Q4 A 125      -0.831  14.666  36.218  1.00 27.66    -0.346 N 
HETATM   34  H6  0Q4 A 125      -1.569  15.169  35.833  1.00 15.00     0.163 HD
BRANCH  33  35
HETATM   35  CA6 0Q4 A 125       0.498  15.262  36.172  1.00 31.09     0.176 C 
BRANCH  35  36
HETATM   36  C6  0Q4 A 125       0.291  16.777  36.339  1.00 33.78     0.238 C 
HETATM   37  O5  0Q4 A 125      -0.840  17.236  36.675  1.00 34.60    -0.271 OA
HETATM   38  N7  0Q4 A 125       1.284  17.505  36.091  1.00 36.53    -0.368 N 
HETATM   39  H72 0Q4 A 125       2.195  17.137  35.820  1.00  0.00     0.159 HD
HETATM   40  H71 0Q4 A 125       1.146  18.510  36.201  1.00  0.00     0.159 HD
ENDBRANCH  35  36
BRANCH  35  41
HETATM   41  CB6 0Q4 A 125       1.131  14.963  34.789  1.00 32.55     0.035 C 
BRANCH  41  42
HETATM   42  CG6 0Q4 A 125       0.252  15.221  33.515  1.00 32.73     0.002 C 
BRANCH  42  43
HETATM   43  CD4 0Q4 A 125       0.807  16.339  32.547  1.00 31.59    -0.004 C 
HETATM   44  CE  0Q4 A 125       2.314  16.451  32.655  1.00 23.29     0.005 C 
ENDBRANCH  42  43
ENDBRANCH  41  42
ENDBRANCH  35  41
ENDBRANCH  33  35
ENDBRANCH  29  31
ENDBRANCH  27  29
ENDBRANCH  24  25
BRANCH  24  45
HETATM   45  CB4 0Q4 A 125      -6.425  15.262  35.451  1.00 17.07     0.045 C 
BRANCH  45  46
HETATM   46  CG5 0Q4 A 125      -7.356  15.232  34.254  1.00 18.50     0.116 C 
BRANCH  46  47
HETATM   47  CD3 0Q4 A 125      -7.802  16.631  33.802  1.00 26.68     0.172 C 
HETATM   48  OE1 0Q4 A 125      -8.505  16.732  32.779  1.00 29.71    -0.648 OA
HETATM   49  OE2 0Q4 A 125      -7.461  17.647  34.464  1.00 31.35    -0.648 OA
ENDBRANCH  46  47
ENDBRANCH  45  46
ENDBRANCH  24  45
ENDBRANCH  22  24
ENDBRANCH  19  20
BRANCH  19  50
HETATM   50  CB3 0Q4 A 125      -2.337  16.111  30.863  1.00 18.22     0.073 C 
BRANCH  50  51
HETATM   51  CG4 0Q4 A 125      -2.354  16.083  29.386  1.00 21.59    -0.056 A 
HETATM   52  CD1 0Q4 A 125      -2.474  14.881  28.702  1.00 22.99     0.007 A 
HETATM   53  CE1 0Q4 A 125      -2.535  14.848  27.289  1.00 24.00     0.001 A 
HETATM   54  CZ1 0Q4 A 125      -2.468  16.037  26.554  1.00 25.64     0.000 A 
HETATM   55  CE2 0Q4 A 125      -2.338  17.249  27.229  1.00 27.27     0.001 A 
HETATM   56  CD2 0Q4 A 125      -2.281  17.264  28.655  1.00 24.65     0.007 A 
ENDBRANCH  50  51
ENDBRANCH  19  50
ENDBRANCH  17  19
ENDBRANCH  15  16
BRANCH  15  57
HETATM   57  CB2 0Q4 A 125      -6.673  17.925  29.857  1.00 19.32     0.034 C 
BRANCH  57  58
HETATM   58  CG3 0Q4 A 125      -6.425  18.718  28.542  1.00 21.12    -0.020 C 
HETATM   59  CD1 0Q4 A 125      -5.272  19.715  28.652  1.00 21.22     0.009 C 
HETATM   60  CD2 0Q4 A 125      -6.166  17.756  27.398  1.00 17.47     0.009 C 
ENDBRANCH  57  58
ENDBRANCH  15  57
ENDBRANCH  13  15
ENDBRANCH  10  11
BRANCH  10  61
HETATM   61  CB1 0Q4 A 125     -11.592  15.920  28.522  1.00 19.28     0.009 C 
HETATM   62  CG1 0Q4 A 125     -13.012  15.830  29.085  1.00 20.08     0.012 C 
HETATM   63  CG2 0Q4 A 125     -11.266  17.412  28.309  1.00 19.54     0.012 C 
ENDBRANCH  10  61
ENDBRANCH   8  10
ENDBRANCH   5   6
BRANCH   5  64
HETATM   64  CB  0Q4 A 125     -12.790  14.866  33.892  1.00 21.80     0.044 C 
BRANCH  64  65
HETATM   65  CG  0Q4 A 125     -12.605  13.815  35.040  1.00 26.69     0.023 C 
BRANCH  65  66
HETATM   66  CD  0Q4 A 125     -12.463  14.398  36.491  1.00 29.76     0.138 C 
BRANCH  66  67
HETATM   67  NE  0Q4 A 125     -13.707  14.417  37.272  1.00 32.26    -0.227 N 
HETATM   68  CZ  0Q4 A 125     -14.419  15.515  37.542  1.00 34.72     0.665 C 
HETATM   69  NH1 0Q4 A 125     -14.013  16.683  37.073  1.00 35.07    -0.235 N 
HETATM   70  NH2 0Q4 A 125     -15.465  15.466  38.380  1.00 35.86    -0.235 N 
HETATM   71 HH11 0Q4 A 125     -13.184  16.742  36.519  1.00 15.00     0.174 HD
HETATM   72 HH12 0Q4 A 125     -14.539  17.512  37.270  1.00 15.00     0.174 HD
HETATM   73 HH21 0Q4 A 125     -15.728  14.606  38.813  1.00 15.00     0.174 HD
HETATM   74 HH22 0Q4 A 125     -15.983  16.303  38.569  1.00 15.00     0.174 HD
HETATM   75  HE  0Q4 A 125     -14.049  13.567  37.629  1.00 15.00     0.177 HD
ENDBRANCH  66  67
ENDBRANCH  65  66
ENDBRANCH  64  65
ENDBRANCH   5  64
ENDBRANCH   1   5
TORSDOF 29
ENDMDL
MODEL 5
REMARK VINA RESULT:      -5.5      2.520      8.713
REMARK  29 active torsions:
REMARK  status: ('A' for Active; 'I' for Inactive)
REMARK    1  A    between atoms: N_1  and  CA_2 
REMARK    2  A    between atoms: CA_2  and  C_4 
REMARK    3  A    between atoms: CA_2  and  CB_6 
REMARK       I    between atoms: C_4  and  N1_19 
REMARK    4  A    between atoms: CB_6  and  CG_9 
REMARK    5  A    between atoms: CG_9  and  CD_12 
REMARK    6  A    between atoms: CD_12  and  NE_15 
REMARK       I    between atoms: NE_15  and  CZ_16 
REMARK       I    between atoms: CZ_16  and  NH1_17 
REMARK    7  A    between atoms: N1_19  and  CA1_20 
REMARK    8  A    between atoms: CA1_20  and  C1_22 
REMARK    9  A    between atoms: CA1_20  and  CB1_24 
REMARK       I    between atoms: C1_22  and  N2_34 
REMARK   10  A    between atoms: N2_34  and  CA2_35 
REMARK   11  A    between atoms: CA2_35  and  C2_37 
REMARK   12  A    between atoms: CA2_35  and  CB2_39 
REMARK   13  A    between atoms: CB2_39  and  CG3_42 
REMARK   14  A    between atoms: N3_52  and  CA3_53 
REMARK   15  A    between atoms: CA3_53  and  C3_55 
REMARK   16  A    between atoms: CA3_53  and  CB3_57 
REMARK       I    between atoms: C3_55  and  N4_71 
REMARK   17  A    between atoms: CB3_57  and  CG4_60 
REMARK   18  A    between atoms: N4_71  and  CA4_72 
REMARK   19  A    between atoms: CA4_72  and  C4_74 
REMARK   20  A    between atoms: CA4_72  and  CB4_76 
REMARK       I    between atoms: C4_74  and  N5_85 
REMARK   21  A    between atoms: CB4_76  and  CG5_79 
REMARK   22  A    between atoms: CG5_79  and  CD3_82 
REMARK   23  A    between atoms: N5_85  and  CA5_86 
REMARK   24  A    between atoms: CA5_86  and  C5_88 
REMARK       I    between atoms: C5_88  and  N6_94 
REMARK   25  A    between atoms: N6_94  and  CA6_95 
REMARK   26  A    between atoms: CA6_95  and  C6_97 
REMARK   27  A    between atoms: CA6_95  and  CB6_99 
REMARK       I    between atoms: C6_97  and  N7_112 
REMARK   28  A    between atoms: CB6_99  and  CG6_102 
REMARK   29  A    between atoms: CG6_102  and  CD4_105 
ROOT
HETATM    1  N   0Q4 A 125     -11.447  20.709  26.237  1.00 21.27    -0.067 N 
HETATM    2  H   0Q4 A 125     -12.413  20.416  26.034  1.00 15.00     0.275 HD
HETATM    3  H2  0Q4 A 125     -11.396  21.747  26.395  1.00 15.00     0.275 HD
HETATM    4  HN3 0Q4 A 125     -10.846  20.446  25.440  1.00 15.00     0.275 HD
ENDROOT
BRANCH   1   5
HETATM    5  CA  0Q4 A 125     -10.942  20.084  27.498  1.00 21.76     0.274 C 
BRANCH   5   6
HETATM    6  C   0Q4 A 125     -11.904  18.925  27.910  1.00 21.89     0.249 C 
HETATM    7  O   0Q4 A 125     -13.136  19.106  27.929  1.00 22.48    -0.271 OA
HETATM    8  N1  0Q4 A 125     -11.341  17.732  28.166  1.00 19.10    -0.346 N 
HETATM    9  H1  0Q4 A 125     -10.367  17.615  28.159  1.00 15.00     0.163 HD
BRANCH   8  10
HETATM   10  CA1 0Q4 A 125     -12.114  16.537  28.509  1.00 18.90     0.180 C 
BRANCH  10  11
HETATM   11  C1  0Q4 A 125     -12.218  16.332  30.043  1.00 17.14     0.241 C 
HETATM   12  O1  0Q4 A 125     -13.090  16.859  30.721  1.00 18.87    -0.271 OA
HETATM   13  N2  0Q4 A 125     -11.239  15.645  30.604  1.00 17.78    -0.350 N 
HETATM   14  HN2 0Q4 A 125     -10.500  15.305  30.051  1.00 15.00     0.163 HD
BRANCH  13  15
HETATM   15  CA2 0Q4 A 125     -11.261  15.331  32.020  1.00 17.96     0.123 C 
BRANCH  15  16
HETATM   16  C2  0Q4 A 125      -9.915  15.311  32.733  1.00 17.56     0.081 C 
HETATM   17  N3  0Q4 A 125      -9.272  16.464  32.775  1.00 16.64    -0.387 N 
HETATM   18  H3  0Q4 A 125      -9.688  17.237  32.348  1.00 15.00     0.159 HD
BRANCH  17  19
HETATM   19  CA3 0Q4 A 125      -7.984  16.650  33.453  1.00 16.89     0.177 C 
BRANCH  19  20
HETATM   20  C3  0Q4 A 125      -6.947  16.869  32.316  1.00 15.06     0.241 C 
HETATM   21  O2  0Q4 A 125      -6.650  18.012  31.959  1.00 12.51    -0.271 OA
HETATM   22  N4  0Q4 A 125      -6.333  15.783  31.846  1.00 14.54    -0.346 N 
HETATM   23  H4  0Q4 A 125      -6.608  14.892  32.156  1.00 15.00     0.163 HD
BRANCH  22  24
HETATM   24  CA4 0Q4 A 125      -5.278  15.838  30.831  1.00 15.81     0.177 C 
BRANCH  24  25
HETATM   25  C4  0Q4 A 125      -3.877  16.184  31.346  1.00 17.52     0.241 C 
HETATM   26  O3  0Q4 A 125      -3.048  16.767  30.643  1.00 17.50    -0.271 OA
HETATM   27  N5  0Q4 A 125      -3.565  15.677  32.527  1.00 19.61    -0.346 N 
HETATM   28  H5  0Q4 A 125      -4.210  15.119  33.016  1.00 15.00     0.163 HD
BRANCH  27  29
HETATM   29  CA5 0Q4 A 125      -2.275  15.934  33.129  1.00 21.82     0.172 C 
HETATM   30  CB5 0Q4 A 125      -2.440  17.028  34.167  1.00 22.24     0.042 C 
BRANCH  29  31
HETATM   31  C5  0Q4 A 125      -1.550  14.725  33.771  1.00 24.09     0.240 C 
HETATM   32  O4  0Q4 A 125      -0.537  14.231  33.271  1.00 20.88    -0.271 OA
HETATM   33  N6  0Q4 A 125      -2.140  14.239  34.858  1.00 27.66    -0.346 N 
HETATM   34  H6  0Q4 A 125      -2.959  14.666  35.162  1.00 15.00     0.163 HD
BRANCH  33  35
HETATM   35  CA6 0Q4 A 125      -1.681  13.056  35.575  1.00 31.09     0.176 C 
BRANCH  35  36
HETATM   36  C6  0Q4 A 125      -2.761  11.983  35.361  1.00 33.78     0.238 C 
HETATM   37  O5  0Q4 A 125      -2.436  10.801  35.045  1.00 34.60    -0.271 OA
HETATM   38  N7  0Q4 A 125      -3.953  12.360  35.486  1.00 36.53    -0.368 N 
HETATM   39  H72 0Q4 A 125      -4.216  13.312  35.741  1.00  0.00     0.159 HD
HETATM   40  H71 0Q4 A 125      -4.669  11.648  35.344  1.00  0.00     0.159 HD
ENDBRANCH  35  36
BRANCH  35  41
HETATM   41  CB6 0Q4 A 125      -1.565  13.400  37.082  1.00 32.55     0.035 C 
BRANCH  41  42
HETATM   42  CG6 0Q4 A 125      -0.390  14.340  37.526  1.00 32.73     0.002 C 
BRANCH  42  43
HETATM   43  CD4 0Q4 A 125      -0.796  15.854  37.722  1.00 31.59    -0.004 C 
HETATM   44  CE  0Q4 A 125      -0.027  16.750  36.772  1.00 23.29     0.005 C 
ENDBRANCH  42  43
ENDBRANCH  41  42
ENDBRANCH  35  41
ENDBRANCH  33  35
ENDBRANCH  29  31
ENDBRANCH  27  29
ENDBRANCH  24  25
BRANCH  24  45
HETATM   45  CB4 0Q4 A 125      -5.689  16.845  29.720  1.00 17.07     0.045 C 
BRANCH  45  46
HETATM   46  CG5 0Q4 A 125      -6.404  16.288  28.504  1.00 18.50     0.116 C 
BRANCH  46  47
HETATM   47  CD3 0Q4 A 125      -7.931  16.426  28.587  1.00 26.68     0.172 C 
HETATM   48  OE1 0Q4 A 125      -8.535  16.954  27.634  1.00 29.71    -0.648 OA
HETATM   49  OE2 0Q4 A 125      -8.550  16.007  29.601  1.00 31.35    -0.648 OA
ENDBRANCH  46  47
ENDBRANCH  45  46
ENDBRANCH  24  45
ENDBRANCH  22  24
ENDBRANCH  19  20
BRANCH  19  50
HETATM   50  CB3 0Q4 A 125      -7.758  15.403  34.360  1.00 18.22     0.073 C 
BRANCH  50  51
HETATM   51  CG4 0Q4 A 125      -6.916  15.635  35.551  1.00 21.59    -0.056 A 
HETATM   52  CD1 0Q4 A 125      -7.474  16.100  36.734  1.00 22.99     0.007 A 
HETATM   53  CE1 0Q4 A 125      -6.683  16.281  37.892  1.00 24.00     0.001 A 
HETATM   54  CZ1 0Q4 A 125      -5.313  15.999  37.861  1.00 25.64     0.000 A 
HETATM   55  CE2 0Q4 A 125      -4.738  15.540  36.676  1.00 27.27     0.001 A 
HETATM   56  CD2 0Q4 A 125      -5.552  15.359  35.517  1.00 24.65     0.007 A 
ENDBRANCH  50  51
ENDBRANCH  19  50
ENDBRANCH  17  19
ENDBRANCH  15  16
BRANCH  15  57
HETATM   57  CB2 0Q4 A 125     -12.063  14.026  32.250  1.00 19.32     0.034 C 
BRANCH  57  58
HETATM   58  CG3 0Q4 A 125     -12.989  14.029  33.499  1.00 21.12    -0.020 C 
HETATM   59  CD1 0Q4 A 125     -12.349  13.369  34.721  1.00 21.22     0.009 C 
HETATM   60  CD2 0Q4 A 125     -13.398  15.450  33.839  1.00 17.47     0.009 C 
ENDBRANCH  57  58
ENDBRANCH  15  57
ENDBRANCH  13  15
ENDBRANCH  10  11
BRANCH  10  61
HETATM   61  CB1 0Q4 A 125     -11.541  15.256  27.710  1.00 19.28     0.009 C 
HETATM   62  CG1 0Q4 A 125     -12.470  14.047  27.835  1.00 20.08     0.012 C 
HETATM   63  CG2 0Q4 A 125     -11.385  15.575  26.210  1.00 19.54     0.012 C 
ENDBRANCH  10  61
ENDBRANCH   8  10
ENDBRANCH   5   6
BRANCH   5  64
HETATM   64  CB  0Q4 A 125     -10.815  21.167  28.577  1.00 21.80     0.044 C 
BRANCH  64  65
HETATM   65  CG  0Q4 A 125     -12.105  21.992  28.908  1.00 26.69     0.023 C 
BRANCH  65  66
HETATM   66  CD  0Q4 A 125     -12.599  21.930  30.397  1.00 29.76     0.138 C 
BRANCH  66  67
HETATM   67  NE  0Q4 A 125     -12.842  20.576  30.910  1.00 32.26    -0.227 N 
HETATM   68  CZ  0Q4 A 125     -13.118  20.283  32.184  1.00 34.72     0.665 C 
HETATM   69  NH1 0Q4 A 125     -13.202  21.261  33.071  1.00 35.07    -0.235 N 
HETATM   70  NH2 0Q4 A 125     -13.188  19.009  32.596  1.00 35.86    -0.235 N 
HETATM   71 HH11 0Q4 A 125     -13.064  22.208  32.788  1.00 15.00     0.174 HD
HETATM   72 HH12 0Q4 A 125     -13.408  21.052  34.028  1.00 15.00     0.174 HD
HETATM   73 HH21 0Q4 A 125     -13.037  18.259  31.955  1.00 15.00     0.174 HD
HETATM   74 HH22 0Q4 A 125     -13.394  18.814  33.557  1.00 15.00     0.174 HD
HETATM   75  HE  0Q4 A 125     -12.800  19.822  30.280  1.00 15.00     0.177 HD
ENDBRANCH  66  67
ENDBRANCH  65  66
ENDBRANCH  64  65
ENDBRANCH   5  64
ENDBRANCH   1   5
TORSDOF 29
ENDMDL
MODEL 6
REMARK VINA RESULT:      -5.5      1.568      2.363
REMARK  29 active torsions:
REMARK  status: ('A' for Active; 'I' for Inactive)
REMARK    1  A    between atoms: N_1  and  CA_2 
REMARK    2  A    between atoms: CA_2  and  C_4 
REMARK    3  A    between atoms: CA_2  and  CB_6 
REMARK       I    between atoms: C_4  and  N1_19 
REMARK    4  A    between atoms: CB_6  and  CG_9 
REMARK    5  A    between atoms: CG_9  and  CD_12 
REMARK    6  A    between atoms: CD_12  and  NE_15 
REMARK       I    between atoms: NE_15  and  CZ_16 
REMARK       I    between atoms: CZ_16  and  NH1_17 
REMARK    7  A    between atoms: N1_19  and  CA1_20 
REMARK    8  A    between atoms: CA1_20  and  C1_22 
REMARK    9  A    between atoms: CA1_20  and  CB1_24 
REMARK       I    between atoms: C1_22  and  N2_34 
REMARK   10  A    between atoms: N2_34  and  CA2_35 
REMARK   11  A    between atoms: CA2_35  and  C2_37 
REMARK   12  A    between atoms: CA2_35  and  CB2_39 
REMARK   13  A    between atoms: CB2_39  and  CG3_42 
REMARK   14  A    between atoms: N3_52  and  CA3_53 
REMARK   15  A    between atoms: CA3_53  and  C3_55 
REMARK   16  A    between atoms: CA3_53  and  CB3_57 
REMARK       I    between atoms: C3_55  and  N4_71 
REMARK   17  A    between atoms: CB3_57  and  CG4_60 
REMARK   18  A    between atoms: N4_71  and  CA4_72 
REMARK   19  A    between atoms: CA4_72  and  C4_74 
REMARK   20  A    between atoms: CA4_72  and  CB4_76 
REMARK       I    between atoms: C4_74  and  N5_85 
REMARK   21  A    between atoms: CB4_76  and  CG5_79 
REMARK   22  A    between atoms: CG5_79  and  CD3_82 
REMARK   23  A    between atoms: N5_85  and  CA5_86 
REMARK   24  A    between atoms: CA5_86  and  C5_88 
REMARK       I    between atoms: C5_88  and  N6_94 
REMARK   25  A    between atoms: N6_94  and  CA6_95 
REMARK   26  A    between atoms: CA6_95  and  C6_97 
REMARK   27  A    between atoms: CA6_95  and  CB6_99 
REMARK       I    between atoms: C6_97  and  N7_112 
REMARK   28  A    between atoms: CB6_99  and  CG6_102 
REMARK   29  A    between atoms: CG6_102  and  CD4_105 
ROOT
HETATM    1  N   0Q4 A 125      -8.224  18.197  28.930  1.00 21.27    -0.067 N 
HETATM    2  H   0Q4 A 125      -7.425  18.802  29.168  1.00 15.00     0.275 HD
HETATM    3  H2  0Q4 A 125      -9.080  18.772  28.724  1.00 15.00     0.275 HD
HETATM    4  HN3 0Q4 A 125      -8.409  17.566  29.725  1.00 15.00     0.275 HD
ENDROOT
BRANCH   1   5
HETATM    5  CA  0Q4 A 125      -7.960  17.408  27.688  1.00 21.76     0.274 C 
BRANCH   5   6
HETATM    6  C   0Q4 A 125      -6.441  17.046  27.630  1.00 21.89     0.249 C 
HETATM    7  O   0Q4 A 125      -5.985  16.398  26.669  1.00 22.48    -0.271 OA
HETATM    8  N1  0Q4 A 125      -5.666  17.524  28.617  1.00 19.10    -0.346 N 
HETATM    9  H1  0Q4 A 125      -6.049  18.020  29.373  1.00 15.00     0.163 HD
BRANCH   8  10
HETATM   10  CA1 0Q4 A 125      -4.218  17.318  28.672  1.00 18.90     0.180 C 
BRANCH  10  11
HETATM   11  C1  0Q4 A 125      -3.817  16.287  29.758  1.00 17.14     0.241 C 
HETATM   12  O1  0Q4 A 125      -3.847  15.078  29.563  1.00 18.87    -0.271 OA
HETATM   13  N2  0Q4 A 125      -3.550  16.778  30.955  1.00 17.78    -0.350 N 
HETATM   14  HN2 0Q4 A 125      -3.618  17.747  31.113  1.00 15.00     0.163 HD
BRANCH  13  15
HETATM   15  CA2 0Q4 A 125      -3.099  15.919  32.034  1.00 17.96     0.123 C 
BRANCH  15  16
HETATM   16  C2  0Q4 A 125      -3.753  16.136  33.393  1.00 17.56     0.081 C 
HETATM   17  N3  0Q4 A 125      -4.160  15.044  34.013  1.00 16.64    -0.387 N 
HETATM   18  H3  0Q4 A 125      -4.027  14.185  33.567  1.00 15.00     0.159 HD
BRANCH  17  19
HETATM   19  CA3 0Q4 A 125      -4.773  15.049  35.347  1.00 16.89     0.177 C 
BRANCH  19  20
HETATM   20  C3  0Q4 A 125      -6.216  15.587  35.136  1.00 15.06     0.241 C 
HETATM   21  O2  0Q4 A 125      -6.574  16.632  35.683  1.00 12.51    -0.271 OA
HETATM   22  N4  0Q4 A 125      -6.979  14.930  34.261  1.00 14.54    -0.346 N 
HETATM   23  H4  0Q4 A 125      -6.652  14.098  33.854  1.00 15.00     0.163 HD
BRANCH  22  24
HETATM   24  CA4 0Q4 A 125      -8.331  15.362  33.899  1.00 15.81     0.177 C 
BRANCH  24  25
HETATM   25  C4  0Q4 A 125      -9.350  14.240  33.675  1.00 17.52     0.241 C 
HETATM   26  O3  0Q4 A 125      -9.125  13.295  32.915  1.00 17.50    -0.271 OA
HETATM   27  N5  0Q4 A 125     -10.538  14.434  34.221  1.00 19.61    -0.346 N 
HETATM   28  H5  0Q4 A 125     -10.725  15.255  34.730  1.00 15.00     0.163 HD
BRANCH  27  29
HETATM   29  CA5 0Q4 A 125     -11.588  13.446  34.089  1.00 21.82     0.172 C 
HETATM   30  CB5 0Q4 A 125     -12.544  13.604  35.256  1.00 22.24     0.042 C 
BRANCH  29  31
HETATM   31  C5  0Q4 A 125     -12.392  13.455  32.765  1.00 24.09     0.240 C 
HETATM   32  O4  0Q4 A 125     -12.206  12.613  31.884  1.00 20.88    -0.271 OA
HETATM   33  N6  0Q4 A 125     -13.244  14.467  32.640  1.00 27.66    -0.346 N 
HETATM   34  H6  0Q4 A 125     -13.299  15.110  33.369  1.00 15.00     0.163 HD
BRANCH  33  35
HETATM   35  CA6 0Q4 A 125     -14.040  14.720  31.447  1.00 31.09     0.176 C 
BRANCH  35  36
HETATM   36  C6  0Q4 A 125     -13.288  15.802  30.654  1.00 33.78     0.238 C 
HETATM   37  O5  0Q4 A 125     -13.915  16.784  30.157  1.00 34.60    -0.271 OA
HETATM   38  N7  0Q4 A 125     -12.053  15.628  30.509  1.00 36.53    -0.368 N 
HETATM   39  H72 0Q4 A 125     -11.547  14.838  30.909  1.00  0.00     0.159 HD
HETATM   40  H71 0Q4 A 125     -11.554  16.345  29.983  1.00  0.00     0.159 HD
ENDBRANCH  35  36
BRANCH  35  41
HETATM   41  CB6 0Q4 A 125     -15.432  15.251  31.879  1.00 32.55     0.035 C 
BRANCH  41  42
HETATM   42  CG6 0Q4 A 125     -16.283  14.357  32.848  1.00 32.73     0.002 C 
BRANCH  42  43
HETATM   43  CD4 0Q4 A 125     -17.460  13.568  32.152  1.00 31.59    -0.004 C 
HETATM   44  CE  0Q4 A 125     -18.168  12.664  33.140  1.00 23.29     0.005 C 
ENDBRANCH  42  43
ENDBRANCH  41  42
ENDBRANCH  35  41
ENDBRANCH  33  35
ENDBRANCH  29  31
ENDBRANCH  27  29
ENDBRANCH  24  25
BRANCH  24  45
HETATM   45  CB4 0Q4 A 125      -8.259  16.261  32.633  1.00 17.07     0.045 C 
BRANCH  45  46
HETATM   46  CG5 0Q4 A 125      -7.191  15.935  31.607  1.00 18.50     0.116 C 
BRANCH  46  47
HETATM   47  CD3 0Q4 A 125      -7.702  15.040  30.467  1.00 26.68     0.172 C 
HETATM   48  OE1 0Q4 A 125      -8.874  15.186  30.074  1.00 29.71    -0.648 OA
HETATM   49  OE2 0Q4 A 125      -6.940  14.183  29.947  1.00 31.35    -0.648 OA
ENDBRANCH  46  47
ENDBRANCH  45  46
ENDBRANCH  24  45
ENDBRANCH  22  24
ENDBRANCH  19  20
BRANCH  19  50
HETATM   50  CB3 0Q4 A 125      -3.850  15.897  36.273  1.00 18.22     0.073 C 
BRANCH  50  51
HETATM   51  CG4 0Q4 A 125      -2.641  15.204  36.763  1.00 21.59    -0.056 A 
HETATM   52  CD1 0Q4 A 125      -2.605  13.820  36.856  1.00 22.99     0.007 A 
HETATM   53  CE1 0Q4 A 125      -1.437  13.147  37.281  1.00 24.00     0.001 A 
HETATM   54  CZ1 0Q4 A 125      -0.291  13.873  37.626  1.00 25.64     0.000 A 
HETATM   55  CE2 0Q4 A 125      -0.317  15.264  37.547  1.00 27.27     0.001 A 
HETATM   56  CD2 0Q4 A 125      -1.504  15.928  37.111  1.00 24.65     0.007 A 
ENDBRANCH  50  51
ENDBRANCH  19  50
ENDBRANCH  17  19
ENDBRANCH  15  16
BRANCH  15  57
HETATM   57  CB2 0Q4 A 125      -1.554  15.957  32.117  1.00 19.32     0.034 C 
BRANCH  57  58
HETATM   58  CG3 0Q4 A 125      -0.960  15.717  33.534  1.00 21.12    -0.020 C 
HETATM   59  CD1 0Q4 A 125      -0.448  14.291  33.735  1.00 21.22     0.009 C 
HETATM   60  CD2 0Q4 A 125       0.158  16.707  33.802  1.00 17.47     0.009 C 
ENDBRANCH  57  58
ENDBRANCH  15  57
ENDBRANCH  13  15
ENDBRANCH  10  11
BRANCH  10  61
HETATM   61  CB1 0Q4 A 125      -3.459  18.737  28.799  1.00 19.28     0.009 C 
HETATM   62  CG1 0Q4 A 125      -2.169  18.768  27.975  1.00 20.08     0.012 C 
HETATM   63  CG2 0Q4 A 125      -4.361  19.885  28.301  1.00 19.54     0.012 C 
ENDBRANCH  10  61
ENDBRANCH   8  10
ENDBRANCH   5   6
BRANCH   5  64
HETATM   64  CB  0Q4 A 125      -8.428  18.217  26.472  1.00 21.80     0.044 C 
BRANCH  64  65
HETATM   65  CG  0Q4 A 125      -8.591  19.763  26.670  1.00 26.69     0.023 C 
BRANCH  65  66
HETATM   66  CD  0Q4 A 125     -10.030  20.341  26.426  1.00 29.76     0.138 C 
BRANCH  66  67
HETATM   67  NE  0Q4 A 125     -11.108  19.624  27.120  1.00 32.26    -0.227 N 
HETATM   68  CZ  0Q4 A 125     -11.596  19.958  28.318  1.00 34.72     0.665 C 
HETATM   69  NH1 0Q4 A 125     -11.108  21.015  28.946  1.00 35.07    -0.235 N 
HETATM   70  NH2 0Q4 A 125     -12.482  19.169  28.943  1.00 35.86    -0.235 N 
HETATM   71 HH11 0Q4 A 125     -10.384  21.559  28.525  1.00 15.00     0.174 HD
HETATM   72 HH12 0Q4 A 125     -11.466  21.274  29.844  1.00 15.00     0.174 HD
HETATM   73 HH21 0Q4 A 125     -12.792  18.320  28.520  1.00 15.00     0.174 HD
HETATM   74 HH22 0Q4 A 125     -12.832  19.439  29.842  1.00 15.00     0.174 HD
HETATM   75  HE  0Q4 A 125     -11.506  18.839  26.682  1.00 15.00     0.177 HD
ENDBRANCH  66  67
ENDBRANCH  65  66
ENDBRANCH  64  65
ENDBRANCH   5  64
ENDBRANCH   1   5
TORSDOF 29
ENDMDL
MODEL 7
REMARK VINA RESULT:      -5.5      3.392      8.369
REMARK  29 active torsions:
REMARK  status: ('A' for Active; 'I' for Inactive)
REMARK    1  A    between atoms: N_1  and  CA_2 
REMARK    2  A    between atoms: CA_2  and  C_4 
REMARK    3  A    between atoms: CA_2  and  CB_6 
REMARK       I    between atoms: C_4  and  N1_19 
REMARK    4  A    between atoms: CB_6  and  CG_9 
REMARK    5  A    between atoms: CG_9  and  CD_12 
REMARK    6  A    between atoms: CD_12  and  NE_15 
REMARK       I    between atoms: NE_15  and  CZ_16 
REMARK       I    between atoms: CZ_16  and  NH1_17 
REMARK    7  A    between atoms: N1_19  and  CA1_20 
REMARK    8  A    between atoms: CA1_20  and  C1_22 
REMARK    9  A    between atoms: CA1_20  and  CB1_24 
REMARK       I    between atoms: C1_22  and  N2_34 
REMARK   10  A    between atoms: N2_34  and  CA2_35 
REMARK   11  A    between atoms: CA2_35  and  C2_37 
REMARK   12  A    between atoms: CA2_35  and  CB2_39 
REMARK   13  A    between atoms: CB2_39  and  CG3_42 
REMARK   14  A    between atoms: N3_52  and  CA3_53 
REMARK   15  A    between atoms: CA3_53  and  C3_55 
REMARK   16  A    between atoms: CA3_53  and  CB3_57 
REMARK       I    between atoms: C3_55  and  N4_71 
REMARK   17  A    between atoms: CB3_57  and  CG4_60 
REMARK   18  A    between atoms: N4_71  and  CA4_72 
REMARK   19  A    between atoms: CA4_72  and  C4_74 
REMARK   20  A    between atoms: CA4_72  and  CB4_76 
REMARK       I    between atoms: C4_74  and  N5_85 
REMARK   21  A    between atoms: CB4_76  and  CG5_79 
REMARK   22  A    between atoms: CG5_79  and  CD3_82 
REMARK   23  A    between atoms: N5_85  and  CA5_86 
REMARK   24  A    between atoms: CA5_86  and  C5_88 
REMARK       I    between atoms: C5_88  and  N6_94 
REMARK   25  A    between atoms: N6_94  and  CA6_95 
REMARK   26  A    between atoms: CA6_95  and  C6_97 
REMARK   27  A    between atoms: CA6_95  and  CB6_99 
REMARK       I    between atoms: C6_97  and  N7_112 
REMARK   28  A    between atoms: CB6_99  and  CG6_102 
REMARK   29  A    between atoms: CG6_102  and  CD4_105 
ROOT
HETATM    1  N   0Q4 A 125       0.566  13.194  34.417  1.00 21.27    -0.067 N 
HETATM    2  H   0Q4 A 125       1.499  13.191  34.851  1.00 15.00     0.275 HD
HETATM    3  H2  0Q4 A 125       0.612  12.846  33.426  1.00 15.00     0.275 HD
HETATM    4  HN3 0Q4 A 125       0.195  14.157  34.433  1.00 15.00     0.275 HD
ENDROOT
BRANCH   1   5
HETATM    5  CA  0Q4 A 125      -0.368  12.266  35.127  1.00 21.76     0.274 C 
BRANCH   5   6
HETATM    6  C   0Q4 A 125      -1.743  12.981  35.321  1.00 21.89     0.249 C 
HETATM    7  O   0Q4 A 125      -2.765  12.318  35.581  1.00 22.48    -0.271 OA
HETATM    8  N1  0Q4 A 125      -1.742  14.323  35.263  1.00 19.10    -0.346 N 
HETATM    9  H1  0Q4 A 125      -0.928  14.824  35.043  1.00 15.00     0.163 HD
BRANCH   8  10
HETATM   10  CA1 0Q4 A 125      -2.939  15.136  35.481  1.00 18.90     0.180 C 
BRANCH  10  11
HETATM   11  C1  0Q4 A 125      -3.179  16.141  34.325  1.00 17.14     0.241 C 
HETATM   12  O1  0Q4 A 125      -3.370  17.335  34.517  1.00 18.87    -0.271 OA
HETATM   13  N2  0Q4 A 125      -3.285  15.620  33.115  1.00 17.78    -0.350 N 
HETATM   14  HN2 0Q4 A 125      -3.217  14.646  32.995  1.00 15.00     0.163 HD
BRANCH  13  15
HETATM   15  CA2 0Q4 A 125      -3.443  16.465  31.947  1.00 17.96     0.123 C 
BRANCH  15  16
HETATM   16  C2  0Q4 A 125      -4.737  16.302  31.161  1.00 17.56     0.081 C 
HETATM   17  N3  0Q4 A 125      -5.594  17.304  31.255  1.00 16.64    -0.387 N 
HETATM   18  H3  0Q4 A 125      -5.352  18.064  31.818  1.00 15.00     0.159 HD
BRANCH  17  19
HETATM   19  CA3 0Q4 A 125      -6.874  17.346  30.538  1.00 16.89     0.177 C 
BRANCH  19  20
HETATM   20  C3  0Q4 A 125      -7.693  16.143  31.083  1.00 15.06     0.241 C 
HETATM   21  O2  0Q4 A 125      -7.867  15.143  30.383  1.00 12.51    -0.271 OA
HETATM   22  N4  0Q4 A 125      -8.082  16.210  32.357  1.00 14.54    -0.346 N 
HETATM   23  H4  0Q4 A 125      -7.926  17.030  32.874  1.00 15.00     0.163 HD
BRANCH  22  24
HETATM   24  CA4 0Q4 A 125      -8.793  15.121  33.034  1.00 15.81     0.177 C 
BRANCH  24  25
HETATM   25  C4  0Q4 A 125     -10.322  15.218  33.023  1.00 17.52     0.241 C 
HETATM   26  O3  0Q4 A 125     -10.930  15.851  32.157  1.00 17.50    -0.271 OA
HETATM   27  N5  0Q4 A 125     -10.930  14.717  34.085  1.00 19.61    -0.346 N 
HETATM   28  H5  0Q4 A 125     -10.408  14.317  34.816  1.00 15.00     0.163 HD
BRANCH  27  29
HETATM   29  CA5 0Q4 A 125     -12.373  14.739  34.195  1.00 21.82     0.172 C 
HETATM   30  CB5 0Q4 A 125     -12.907  13.384  33.771  1.00 22.24     0.042 C 
BRANCH  29  31
HETATM   31  C5  0Q4 A 125     -12.961  15.111  35.579  1.00 24.09     0.240 C 
HETATM   32  O4  0Q4 A 125     -12.528  14.621  36.624  1.00 20.88    -0.271 OA
HETATM   33  N6  0Q4 A 125     -13.993  15.946  35.537  1.00 27.66    -0.346 N 
HETATM   34  H6  0Q4 A 125     -14.295  16.255  34.665  1.00 15.00     0.163 HD
BRANCH  33  35
HETATM   35  CA6 0Q4 A 125     -14.752  16.364  36.708  1.00 31.09     0.176 C 
BRANCH  35  36
HETATM   36  C6  0Q4 A 125     -15.952  15.407  36.803  1.00 33.78     0.238 C 
HETATM   37  O5  0Q4 A 125     -16.290  14.704  35.806  1.00 34.60    -0.271 OA
HETATM   38  N7  0Q4 A 125     -16.573  15.399  37.895  1.00 36.53    -0.368 N 
HETATM   39  H72 0Q4 A 125     -16.301  15.965  38.698  1.00  0.00     0.159 HD
HETATM   40  H71 0Q4 A 125     -17.369  14.764  37.957  1.00  0.00     0.159 HD
ENDBRANCH  35  36
BRANCH  35  41
HETATM   41  CB6 0Q4 A 125     -15.249  17.817  36.488  1.00 32.55     0.035 C 
BRANCH  41  42
HETATM   42  CG6 0Q4 A 125     -15.134  18.815  37.693  1.00 32.73     0.002 C 
BRANCH  42  43
HETATM   43  CD4 0Q4 A 125     -14.398  18.232  38.963  1.00 31.59    -0.004 C 
HETATM   44  CE  0Q4 A 125     -13.390  19.223  39.509  1.00 23.29     0.005 C 
ENDBRANCH  42  43
ENDBRANCH  41  42
ENDBRANCH  35  41
ENDBRANCH  33  35
ENDBRANCH  29  31
ENDBRANCH  27  29
ENDBRANCH  24  25
BRANCH  24  45
HETATM   45  CB4 0Q4 A 125      -8.287  15.014  34.500  1.00 17.07     0.045 C 
BRANCH  45  46
HETATM   46  CG5 0Q4 A 125      -6.883  15.509  34.790  1.00 18.50     0.116 C 
BRANCH  46  47
HETATM   47  CD3 0Q4 A 125      -6.859  16.856  35.530  1.00 26.68     0.172 C 
HETATM   48  OE1 0Q4 A 125      -7.302  17.864  34.949  1.00 29.71    -0.648 OA
HETATM   49  OE2 0Q4 A 125      -6.400  16.925  36.701  1.00 31.35    -0.648 OA
ENDBRANCH  46  47
ENDBRANCH  45  46
ENDBRANCH  24  45
ENDBRANCH  22  24
ENDBRANCH  19  20
BRANCH  19  50
HETATM   50  CB3 0Q4 A 125      -6.548  17.323  29.015  1.00 18.22     0.073 C 
BRANCH  50  51
HETATM   51  CG4 0Q4 A 125      -7.279  18.315  28.198  1.00 21.59    -0.056 A 
HETATM   52  CD1 0Q4 A 125      -6.591  19.261  27.450  1.00 22.99     0.007 A 
HETATM   53  CE1 0Q4 A 125      -7.281  20.184  26.631  1.00 24.00     0.001 A 
HETATM   54  CZ1 0Q4 A 125      -8.679  20.163  26.568  1.00 25.64     0.000 A 
HETATM   55  CE2 0Q4 A 125      -9.381  19.224  27.322  1.00 27.27     0.001 A 
HETATM   56  CD2 0Q4 A 125      -8.668  18.297  28.141  1.00 24.65     0.007 A 
ENDBRANCH  50  51
ENDBRANCH  19  50
ENDBRANCH  17  19
ENDBRANCH  15  16
BRANCH  15  57
HETATM   57  CB2 0Q4 A 125      -2.192  16.341  31.043  1.00 19.32     0.034 C 
BRANCH  57  58
HETATM   58  CG3 0Q4 A 125      -0.930  17.094  31.550  1.00 21.12    -0.020 C 
HETATM   59  CD1 0Q4 A 125       0.100  16.168  32.196  1.00 21.22     0.009 C 
HETATM   60  CD2 0Q4 A 125      -0.288  17.859  30.408  1.00 17.47     0.009 C 
ENDBRANCH  57  58
ENDBRANCH  15  57
ENDBRANCH  13  15
ENDBRANCH  10  11
BRANCH  10  61
HETATM   61  CB1 0Q4 A 125      -2.891  15.816  36.945  1.00 19.28     0.009 C 
HETATM   62  CG1 0Q4 A 125      -3.599  14.957  37.995  1.00 20.08     0.012 C 
HETATM   63  CG2 0Q4 A 125      -1.433  16.015  37.406  1.00 19.54     0.012 C 
ENDBRANCH  10  61
ENDBRANCH   8  10
ENDBRANCH   5   6
BRANCH   5  64
HETATM   64  CB  0Q4 A 125       0.271  11.829  36.451  1.00 21.80     0.044 C 
BRANCH  64  65
HETATM   65  CG  0Q4 A 125       0.990  10.436  36.465  1.00 26.69     0.023 C 
BRANCH  65  66
HETATM   66  CD  0Q4 A 125       1.053   9.679  35.092  1.00 29.76     0.138 C 
BRANCH  66  67
HETATM   67  NE  0Q4 A 125       0.461   8.335  35.100  1.00 32.26    -0.227 N 
HETATM   68  CZ  0Q4 A 125      -0.819   8.066  34.833  1.00 34.72     0.665 C 
HETATM   69  NH1 0Q4 A 125      -1.639   9.055  34.519  1.00 35.07    -0.235 N 
HETATM   70  NH2 0Q4 A 125      -1.311   6.829  35.000  1.00 35.86    -0.235 N 
HETATM   71 HH11 0Q4 A 125      -1.300   9.994  34.477  1.00 15.00     0.174 HD
HETATM   72 HH12 0Q4 A 125      -2.601   8.864  34.317  1.00 15.00     0.174 HD
HETATM   73 HH21 0Q4 A 125      -0.724   6.090  35.325  1.00 15.00     0.174 HD
HETATM   74 HH22 0Q4 A 125      -2.275   6.652  34.796  1.00 15.00     0.174 HD
HETATM   75  HE  0Q4 A 125       1.040   7.571  35.319  1.00 15.00     0.177 HD
ENDBRANCH  66  67
ENDBRANCH  65  66
ENDBRANCH  64  65
ENDBRANCH   5  64
ENDBRANCH   1   5
TORSDOF 29
ENDMDL
MODEL 8
REMARK VINA RESULT:      -5.5      3.273      8.197
REMARK  29 active torsions:
REMARK  status: ('A' for Active; 'I' for Inactive)
REMARK    1  A    between atoms: N_1  and  CA_2 
REMARK    2  A    between atoms: CA_2  and  C_4 
REMARK    3  A    between atoms: CA_2  and  CB_6 
REMARK       I    between atoms: C_4  and  N1_19 
REMARK    4  A    between atoms: CB_6  and  CG_9 
REMARK    5  A    between atoms: CG_9  and  CD_12 
REMARK    6  A    between atoms: CD_12  and  NE_15 
REMARK       I    between atoms: NE_15  and  CZ_16 
REMARK       I    between atoms: CZ_16  and  NH1_17 
REMARK    7  A    between atoms: N1_19  and  CA1_20 
REMARK    8  A    between atoms: CA1_20  and  C1_22 
REMARK    9  A    between atoms: CA1_20  and  CB1_24 
REMARK       I    between atoms: C1_22  and  N2_34 
REMARK   10  A    between atoms: N2_34  and  CA2_35 
REMARK   11  A    between atoms: CA2_35  and  C2_37 
REMARK   12  A    between atoms: CA2_35  and  CB2_39 
REMARK   13  A    between atoms: CB2_39  and  CG3_42 
REMARK   14  A    between atoms: N3_52  and  CA3_53 
REMARK   15  A    between atoms: CA3_53  and  C3_55 
REMARK   16  A    between atoms: CA3_53  and  CB3_57 
REMARK       I    between atoms: C3_55  and  N4_71 
REMARK   17  A    between atoms: CB3_57  and  CG4_60 
REMARK   18  A    between atoms: N4_71  and  CA4_72 
REMARK   19  A    between atoms: CA4_72  and  C4_74 
REMARK   20  A    between atoms: CA4_72  and  CB4_76 
REMARK       I    between atoms: C4_74  and  N5_85 
REMARK   21  A    between atoms: CB4_76  and  CG5_79 
REMARK   22  A    between atoms: CG5_79  and  CD3_82 
REMARK   23  A    between atoms: N5_85  and  CA5_86 
REMARK   24  A    between atoms: CA5_86  and  C5_88 
REMARK       I    between atoms: C5_88  and  N6_94 
REMARK   25  A    between atoms: N6_94  and  CA6_95 
REMARK   26  A    between atoms: CA6_95  and  C6_97 
REMARK   27  A    between atoms: CA6_95  and  CB6_99 
REMARK       I    between atoms: C6_97  and  N7_112 
REMARK   28  A    between atoms: CB6_99  and  CG6_102 
REMARK   29  A    between atoms: CG6_102  and  CD4_105 
ROOT
HETATM    1  N   0Q4 A 125       0.373  12.745  34.574  1.00 21.27    -0.067 N 
HETATM    2  H   0Q4 A 125       1.266  12.233  34.534  1.00 15.00     0.275 HD
HETATM    3  H2  0Q4 A 125       0.030  12.975  33.608  1.00 15.00     0.275 HD
HETATM    4  HN3 0Q4 A 125       0.514  13.614  35.113  1.00 15.00     0.275 HD
ENDROOT
BRANCH   1   5
HETATM    5  CA  0Q4 A 125      -0.703  11.914  35.197  1.00 21.76     0.274 C 
BRANCH   5   6
HETATM    6  C   0Q4 A 125      -1.986  12.789  35.363  1.00 21.89     0.249 C 
HETATM    7  O   0Q4 A 125      -3.083  12.256  35.619  1.00 22.48    -0.271 OA
HETATM    8  N1  0Q4 A 125      -1.826  14.121  35.286  1.00 19.10    -0.346 N 
HETATM    9  H1  0Q4 A 125      -0.956  14.519  35.069  1.00 15.00     0.163 HD
BRANCH   8  10
HETATM   10  CA1 0Q4 A 125      -2.922  15.073  35.475  1.00 18.90     0.180 C 
BRANCH  10  11
HETATM   11  C1  0Q4 A 125      -3.041  16.067  34.291  1.00 17.14     0.241 C 
HETATM   12  O1  0Q4 A 125      -3.572  17.165  34.403  1.00 18.87    -0.271 OA
HETATM   13  N2  0Q4 A 125      -2.640  15.620  33.115  1.00 17.78    -0.350 N 
HETATM   14  HN2 0Q4 A 125      -2.299  14.701  33.031  1.00 15.00     0.163 HD
BRANCH  13  15
HETATM   15  CA2 0Q4 A 125      -2.641  16.480  31.947  1.00 17.96     0.123 C 
BRANCH  15  16
HETATM   16  C2  0Q4 A 125      -3.860  16.390  31.038  1.00 17.56     0.081 C 
HETATM   17  N3  0Q4 A 125      -4.924  17.061  31.439  1.00 16.64    -0.387 N 
HETATM   18  H3  0Q4 A 125      -4.867  17.554  32.280  1.00 15.00     0.159 HD
BRANCH  17  19
HETATM   19  CA3 0Q4 A 125      -6.176  17.128  30.676  1.00 16.89     0.177 C 
BRANCH  19  20
HETATM   20  C3  0Q4 A 125      -7.026  15.924  31.171  1.00 15.06     0.241 C 
HETATM   21  O2  0Q4 A 125      -7.042  14.871  30.530  1.00 12.51    -0.271 OA
HETATM   22  N4  0Q4 A 125      -7.624  16.059  32.355  1.00 14.54    -0.346 N 
HETATM   23  H4  0Q4 A 125      -7.588  16.919  32.827  1.00 15.00     0.163 HD
BRANCH  22  24
HETATM   24  CA4 0Q4 A 125      -8.393  14.984  32.989  1.00 15.81     0.177 C 
BRANCH  24  25
HETATM   25  C4  0Q4 A 125      -9.867  14.892  32.581  1.00 17.52     0.241 C 
HETATM   26  O3  0Q4 A 125     -10.231  15.030  31.411  1.00 17.50    -0.271 OA
HETATM   27  N5  0Q4 A 125     -10.730  14.817  33.580  1.00 19.61    -0.346 N 
HETATM   28  H5  0Q4 A 125     -10.415  14.823  34.511  1.00 15.00     0.163 HD
BRANCH  27  29
HETATM   29  CA5 0Q4 A 125     -12.151  14.719  33.329  1.00 21.82     0.172 C 
HETATM   30  CB5 0Q4 A 125     -12.624  13.350  33.779  1.00 22.24     0.042 C 
BRANCH  29  31
HETATM   31  C5  0Q4 A 125     -13.050  15.807  33.971  1.00 24.09     0.240 C 
HETATM   32  O4  0Q4 A 125     -13.032  16.977  33.585  1.00 20.88    -0.271 OA
HETATM   33  N6  0Q4 A 125     -13.786  15.385  34.993  1.00 27.66    -0.346 N 
HETATM   34  H6  0Q4 A 125     -13.709  14.452  35.257  1.00 15.00     0.163 HD
BRANCH  33  35
HETATM   35  CA6 0Q4 A 125     -14.638  16.252  35.796  1.00 31.09     0.176 C 
BRANCH  35  36
HETATM   36  C6  0Q4 A 125     -14.217  16.028  37.258  1.00 33.78     0.238 C 
HETATM   37  O5  0Q4 A 125     -14.072  14.854  37.710  1.00 34.60    -0.271 OA
HETATM   38  N7  0Q4 A 125     -14.068  17.060  37.959  1.00 36.53    -0.368 N 
HETATM   39  H72 0Q4 A 125     -14.184  18.006  37.595  1.00  0.00     0.159 HD
HETATM   40  H71 0Q4 A 125     -13.789  16.911  38.928  1.00  0.00     0.159 HD
ENDBRANCH  35  36
BRANCH  35  41
HETATM   41  CB6 0Q4 A 125     -16.115  15.822  35.597  1.00 32.55     0.035 C 
BRANCH  41  42
HETATM   42  CG6 0Q4 A 125     -16.418  14.748  34.495  1.00 32.73     0.002 C 
BRANCH  42  43
HETATM   43  CD4 0Q4 A 125     -17.898  14.197  34.502  1.00 31.59    -0.004 C 
HETATM   44  CE  0Q4 A 125     -18.018  12.952  33.647  1.00 23.29     0.005 C 
ENDBRANCH  42  43
ENDBRANCH  41  42
ENDBRANCH  35  41
ENDBRANCH  33  35
ENDBRANCH  29  31
ENDBRANCH  27  29
ENDBRANCH  24  25
BRANCH  24  45
HETATM   45  CB4 0Q4 A 125      -8.288  15.122  34.534  1.00 17.07     0.045 C 
BRANCH  45  46
HETATM   46  CG5 0Q4 A 125      -6.919  15.421  35.114  1.00 18.50     0.116 C 
BRANCH  46  47
HETATM   47  CD3 0Q4 A 125      -6.785  16.861  35.633  1.00 26.68     0.172 C 
HETATM   48  OE1 0Q4 A 125      -6.142  17.062  36.680  1.00 29.71    -0.648 OA
HETATM   49  OE2 0Q4 A 125      -7.318  17.812  35.001  1.00 31.35    -0.648 OA
ENDBRANCH  46  47
ENDBRANCH  45  46
ENDBRANCH  24  45
ENDBRANCH  22  24
ENDBRANCH  19  20
BRANCH  19  50
HETATM   50  CB3 0Q4 A 125      -5.794  17.126  29.166  1.00 18.22     0.073 C 
BRANCH  50  51
HETATM   51  CG4 0Q4 A 125      -6.037  18.397  28.452  1.00 21.59    -0.056 A 
HETATM   52  CD1 0Q4 A 125      -7.330  18.810  28.161  1.00 22.99     0.007 A 
HETATM   53  CE1 0Q4 A 125      -7.573  20.046  27.519  1.00 24.00     0.001 A 
HETATM   54  CZ1 0Q4 A 125      -6.505  20.874  27.156  1.00 25.64     0.000 A 
HETATM   55  CE2 0Q4 A 125      -5.201  20.465  27.433  1.00 27.27     0.001 A 
HETATM   56  CD2 0Q4 A 125      -4.974  19.216  28.086  1.00 24.65     0.007 A 
ENDBRANCH  50  51
ENDBRANCH  19  50
ENDBRANCH  17  19
ENDBRANCH  15  16
BRANCH  15  57
HETATM   57  CB2 0Q4 A 125      -1.316  16.298  31.166  1.00 19.32     0.034 C 
BRANCH  57  58
HETATM   58  CG3 0Q4 A 125      -0.214  17.349  31.478  1.00 21.12    -0.020 C 
HETATM   59  CD1 0Q4 A 125      -0.726  18.527  32.305  1.00 21.22     0.009 C 
HETATM   60  CD2 0Q4 A 125       0.948  16.685  32.193  1.00 17.47     0.009 C 
ENDBRANCH  57  58
ENDBRANCH  15  57
ENDBRANCH  13  15
ENDBRANCH  10  11
BRANCH  10  61
HETATM   61  CB1 0Q4 A 125      -2.799  15.782  36.921  1.00 19.28     0.009 C 
HETATM   62  CG1 0Q4 A 125      -3.516  14.981  38.010  1.00 20.08     0.012 C 
HETATM   63  CG2 0Q4 A 125      -1.320  15.919  37.336  1.00 19.54     0.012 C 
ENDBRANCH  10  61
ENDBRANCH   8  10
ENDBRANCH   5   6
BRANCH   5  64
HETATM   64  CB  0Q4 A 125      -0.191  11.347  36.527  1.00 21.80     0.044 C 
BRANCH  64  65
HETATM   65  CG  0Q4 A 125       0.995  10.325  36.452  1.00 26.69     0.023 C 
BRANCH  65  66
HETATM   66  CD  0Q4 A 125       1.103   9.492  35.126  1.00 29.76     0.138 C 
BRANCH  66  67
HETATM   67  NE  0Q4 A 125       0.674   8.092  35.241  1.00 32.26    -0.227 N 
HETATM   68  CZ  0Q4 A 125      -0.566   7.655  35.010  1.00 34.72     0.665 C 
HETATM   69  NH1 0Q4 A 125      -1.498   8.515  34.634  1.00 35.07    -0.235 N 
HETATM   70  NH2 0Q4 A 125      -0.908   6.385  35.274  1.00 35.86    -0.235 N 
HETATM   71 HH11 0Q4 A 125      -1.273   9.481  34.519  1.00 15.00     0.174 HD
HETATM   72 HH12 0Q4 A 125      -2.431   8.198  34.458  1.00 15.00     0.174 HD
HETATM   73 HH21 0Q4 A 125      -0.236   5.746  35.645  1.00 15.00     0.174 HD
HETATM   74 HH22 0Q4 A 125      -1.845   6.081  35.094  1.00 15.00     0.174 HD
HETATM   75  HE  0Q4 A 125       1.340   7.419  35.507  1.00 15.00     0.177 HD
ENDBRANCH  66  67
ENDBRANCH  65  66
ENDBRANCH  64  65
ENDBRANCH   5  64
ENDBRANCH   1   5
TORSDOF 29
ENDMDL
MODEL 9
REMARK VINA RESULT:      -5.4      2.384      9.135
REMARK  29 active torsions:
REMARK  status: ('A' for Active; 'I' for Inactive)
REMARK    1  A    between atoms: N_1  and  CA_2 
REMARK    2  A    between atoms: CA_2  and  C_4 
REMARK    3  A    between atoms: CA_2  and  CB_6 
REMARK       I    between atoms: C_4  and  N1_19 
REMARK    4  A    between atoms: CB_6  and  CG_9 
REMARK    5  A    between atoms: CG_9  and  CD_12 
REMARK    6  A    between atoms: CD_12  and  NE_15 
REMARK       I    between atoms: NE_15  and  CZ_16 
REMARK       I    between atoms: CZ_16  and  NH1_17 
REMARK    7  A    between atoms: N1_19  and  CA1_20 
REMARK    8  A    between atoms: CA1_20  and  C1_22 
REMARK    9  A    between atoms: CA1_20  and  CB1_24 
REMARK       I    between atoms: C1_22  and  N2_34 
REMARK   10  A    between atoms: N2_34  and  CA2_35 
REMARK   11  A    between atoms: CA2_35  and  C2_37 
REMARK   12  A    between atoms: CA2_35  and  CB2_39 
REMARK   13  A    between atoms: CB2_39  and  CG3_42 
REMARK   14  A    between atoms: N3_52  and  CA3_53 
REMARK   15  A    between atoms: CA3_53  and  C3_55 
REMARK   16  A    between atoms: CA3_53  and  CB3_57 
REMARK       I    between atoms: C3_55  and  N4_71 
REMARK   17  A    between atoms: CB3_57  and  CG4_60 
REMARK   18  A    between atoms: N4_71  and  CA4_72 
REMARK   19  A    between atoms: CA4_72  and  C4_74 
REMARK   20  A    between atoms: CA4_72  and  CB4_76 
REMARK       I    between atoms: C4_74  and  N5_85 
REMARK   21  A    between atoms: CB4_76  and  CG5_79 
REMARK   22  A    between atoms: CG5_79  and  CD3_82 
REMARK   23  A    between atoms: N5_85  and  CA5_86 
REMARK   24  A    between atoms: CA5_86  and  C5_88 
REMARK       I    between atoms: C5_88  and  N6_94 
REMARK   25  A    between atoms: N6_94  and  CA6_95 
REMARK   26  A    between atoms: CA6_95  and  C6_97 
REMARK   27  A    between atoms: CA6_95  and  CB6_99 
REMARK       I    between atoms: C6_97  and  N7_112 
REMARK   28  A    between atoms: CB6_99  and  CG6_102 
REMARK   29  A    between atoms: CG6_102  and  CD4_105 
ROOT
HETATM    1  N   0Q4 A 125      -5.494  13.677  29.530  1.00 21.27    -0.067 N 
HETATM    2  H   0Q4 A 125      -6.438  13.402  29.227  1.00 15.00     0.275 HD
HETATM    3  H2  0Q4 A 125      -4.840  12.855  29.513  1.00 15.00     0.275 HD
HETATM    4  HN3 0Q4 A 125      -5.552  14.058  30.488  1.00 15.00     0.275 HD
ENDROOT
BRANCH   1   5
HETATM    5  CA  0Q4 A 125      -4.896  14.687  28.603  1.00 21.76     0.274 C 
BRANCH   5   6
HETATM    6  C   0Q4 A 125      -6.048  15.443  27.866  1.00 21.89     0.249 C 
HETATM    7  O   0Q4 A 125      -5.878  16.608  27.462  1.00 22.48    -0.271 OA
HETATM    8  N1  0Q4 A 125      -7.177  14.752  27.637  1.00 19.10    -0.346 N 
HETATM    9  H1  0Q4 A 125      -7.295  13.839  27.977  1.00 15.00     0.163 HD
BRANCH   8  10
HETATM   10  CA1 0Q4 A 125      -8.322  15.304  26.910  1.00 18.90     0.180 C 
BRANCH  10  11
HETATM   11  C1  0Q4 A 125      -9.461  15.744  27.865  1.00 17.14     0.241 C 
HETATM   12  O1  0Q4 A 125      -9.527  16.873  28.336  1.00 18.87    -0.271 OA
HETATM   13  N2  0Q4 A 125     -10.301  14.797  28.243  1.00 17.78    -0.350 N 
HETATM   14  HN2 0Q4 A 125     -10.177  13.876  27.921  1.00 15.00     0.163 HD
BRANCH  13  15
HETATM   15  CA2 0Q4 A 125     -11.446  15.102  29.081  1.00 17.96     0.123 C 
BRANCH  15  16
HETATM   16  C2  0Q4 A 125     -11.328  14.728  30.552  1.00 17.56     0.081 C 
HETATM   17  N3  0Q4 A 125     -11.278  15.741  31.399  1.00 16.64    -0.387 N 
HETATM   18  H3  0Q4 A 125     -11.308  16.646  31.034  1.00 15.00     0.159 HD
BRANCH  17  19
HETATM   19  CA3 0Q4 A 125     -11.206  15.578  32.855  1.00 16.89     0.177 C 
BRANCH  19  20
HETATM   20  C3  0Q4 A 125      -9.696  15.395  33.177  1.00 15.06     0.241 C 
HETATM   21  O2  0Q4 A 125      -9.224  14.263  33.311  1.00 12.51    -0.271 OA
HETATM   22  N4  0Q4 A 125      -8.946  16.497  33.182  1.00 14.54    -0.346 N 
HETATM   23  H4  0Q4 A 125      -9.368  17.377  33.077  1.00 15.00     0.163 HD
BRANCH  22  24
HETATM   24  CA4 0Q4 A 125      -7.495  16.475  33.392  1.00 15.81     0.177 C 
BRANCH  24  25
HETATM   25  C4  0Q4 A 125      -7.019  16.882  34.790  1.00 17.52     0.241 C 
HETATM   26  O3  0Q4 A 125      -7.272  17.989  35.269  1.00 17.50    -0.271 OA
HETATM   27  N5  0Q4 A 125      -6.190  16.035  35.376  1.00 19.61    -0.346 N 
HETATM   28  H5  0Q4 A 125      -5.915  15.209  34.919  1.00 15.00     0.163 HD
BRANCH  27  29
HETATM   29  CA5 0Q4 A 125      -5.672  16.299  36.701  1.00 21.82     0.172 C 
HETATM   30  CB5 0Q4 A 125      -6.729  15.906  37.716  1.00 22.24     0.042 C 
BRANCH  29  31
HETATM   31  C5  0Q4 A 125      -4.329  15.623  37.073  1.00 24.09     0.240 C 
HETATM   32  O4  0Q4 A 125      -4.096  15.221  38.215  1.00 20.88    -0.271 OA
HETATM   33  N6  0Q4 A 125      -3.444  15.566  36.084  1.00 27.66    -0.346 N 
HETATM   34  H6  0Q4 A 125      -3.696  15.943  35.223  1.00 15.00     0.163 HD
BRANCH  33  35
HETATM   35  CA6 0Q4 A 125      -2.089  15.049  36.230  1.00 31.09     0.176 C 
BRANCH  35  36
HETATM   36  C6  0Q4 A 125      -1.165  16.278  36.256  1.00 33.78     0.238 C 
HETATM   37  O5  0Q4 A 125      -1.283  17.186  35.382  1.00 34.60    -0.271 OA
HETATM   38  N7  0Q4 A 125      -0.290  16.297  37.157  1.00 36.53    -0.368 N 
HETATM   39  H72 0Q4 A 125      -0.195  15.566  37.862  1.00  0.00     0.159 HD
HETATM   40  H71 0Q4 A 125       0.323  17.112  37.174  1.00  0.00     0.159 HD
ENDBRANCH  35  36
BRANCH  35  41
HETATM   41  CB6 0Q4 A 125      -1.759  14.163  35.002  1.00 32.55     0.035 C 
BRANCH  41  42
HETATM   42  CG6 0Q4 A 125      -1.780  12.606  35.201  1.00 32.73     0.002 C 
BRANCH  42  43
HETATM   43  CD4 0Q4 A 125      -2.738  12.103  36.352  1.00 31.59    -0.004 C 
HETATM   44  CE  0Q4 A 125      -3.663  11.014  35.850  1.00 23.29     0.005 C 
ENDBRANCH  42  43
ENDBRANCH  41  42
ENDBRANCH  35  41
ENDBRANCH  33  35
ENDBRANCH  29  31
ENDBRANCH  27  29
ENDBRANCH  24  25
BRANCH  24  45
HETATM   45  CB4 0Q4 A 125      -6.811  17.375  32.325  1.00 17.07     0.045 C 
BRANCH  45  46
HETATM   46  CG5 0Q4 A 125      -5.796  16.720  31.408  1.00 18.50     0.116 C 
BRANCH  46  47
HETATM   47  CD3 0Q4 A 125      -4.503  16.313  32.132  1.00 26.68     0.172 C 
HETATM   48  OE1 0Q4 A 125      -3.734  15.509  31.574  1.00 29.71    -0.648 OA
HETATM   49  OE2 0Q4 A 125      -4.237  16.793  33.266  1.00 31.35    -0.648 OA
ENDBRANCH  46  47
ENDBRANCH  45  46
ENDBRANCH  24  45
ENDBRANCH  22  24
ENDBRANCH  19  20
BRANCH  19  50
HETATM   50  CB3 0Q4 A 125     -12.139  14.389  33.231  1.00 18.22     0.073 C 
BRANCH  50  51
HETATM   51  CG4 0Q4 A 125     -12.702  14.435  34.597  1.00 21.59    -0.056 A 
HETATM   52  CD1 0Q4 A 125     -13.272  15.601  35.089  1.00 22.99     0.007 A 
HETATM   53  CE1 0Q4 A 125     -13.853  15.642  36.377  1.00 24.00     0.001 A 
HETATM   54  CZ1 0Q4 A 125     -13.856  14.500  37.185  1.00 25.64     0.000 A 
HETATM   55  CE2 0Q4 A 125     -13.277  13.325  36.706  1.00 27.27     0.001 A 
HETATM   56  CD2 0Q4 A 125     -12.699  13.301  35.401  1.00 24.65     0.007 A 
ENDBRANCH  50  51
ENDBRANCH  19  50
ENDBRANCH  17  19
ENDBRANCH  15  16
BRANCH  15  57
HETATM   57  CB2 0Q4 A 125     -12.731  14.530  28.434  1.00 19.32     0.034 C 
BRANCH  57  58
HETATM   58  CG3 0Q4 A 125     -12.598  13.093  27.856  1.00 21.12    -0.020 C 
HETATM   59  CD1 0Q4 A 125     -13.322  12.040  28.695  1.00 21.22     0.009 C 
HETATM   60  CD2 0Q4 A 125     -13.115  13.057  26.430  1.00 17.47     0.009 C 
ENDBRANCH  57  58
ENDBRANCH  15  57
ENDBRANCH  13  15
ENDBRANCH  10  11
BRANCH  10  61
HETATM   61  CB1 0Q4 A 125      -8.791  14.280  25.753  1.00 19.28     0.009 C 
HETATM   62  CG1 0Q4 A 125      -9.616  14.983  24.672  1.00 20.08     0.012 C 
HETATM   63  CG2 0Q4 A 125      -7.570  13.635  25.067  1.00 19.54     0.012 C 
ENDBRANCH  10  61
ENDBRANCH   8  10
ENDBRANCH   5   6
BRANCH   5  64
HETATM   64  CB  0Q4 A 125      -3.936  13.976  27.641  1.00 21.80     0.044 C 
BRANCH  64  65
HETATM   65  CG  0Q4 A 125      -2.482  14.552  27.536  1.00 26.69     0.023 C 
BRANCH  65  66
HETATM   66  CD  0Q4 A 125      -2.355  16.115  27.598  1.00 29.76     0.138 C 
BRANCH  66  67
HETATM   67  NE  0Q4 A 125      -1.921  16.647  28.896  1.00 32.26    -0.227 N 
HETATM   68  CZ  0Q4 A 125      -2.488  17.682  29.522  1.00 34.72     0.665 C 
HETATM   69  NH1 0Q4 A 125      -3.527  18.284  28.969  1.00 35.07    -0.235 N 
HETATM   70  NH2 0Q4 A 125      -1.943  18.194  30.636  1.00 35.86    -0.235 N 
HETATM   71 HH11 0Q4 A 125      -3.887  17.964  28.095  1.00 15.00     0.174 HD
HETATM   72 HH12 0Q4 A 125      -3.960  19.061  29.430  1.00 15.00     0.174 HD
HETATM   73 HH21 0Q4 A 125      -1.105  17.806  31.015  1.00 15.00     0.174 HD
HETATM   74 HH22 0Q4 A 125      -2.385  18.972  31.086  1.00 15.00     0.174 HD
HETATM   75  HE  0Q4 A 125      -1.157  16.220  29.346  1.00 15.00     0.177 HD
ENDBRANCH  66  67
ENDBRANCH  65  66
ENDBRANCH  64  65
ENDBRANCH   5  64
ENDBRANCH   1   5
TORSDOF 29
ENDMDL
MODEL 10
REMARK VINA RESULT:      -5.3      3.055     10.168
REMARK  29 active torsions:
REMARK  status: ('A' for Active; 'I' for Inactive)
REMARK    1  A    between atoms: N_1  and  CA_2 
REMARK    2  A    between atoms: CA_2  and  C_4 
REMARK    3  A    between atoms: CA_2  and  CB_6 
REMARK       I    between atoms: C_4  and  N1_19 
REMARK    4  A    between atoms: CB_6  and  CG_9 
REMARK    5  A    between atoms: CG_9  and  CD_12 
REMARK    6  A    between atoms: CD_12  and  NE_15 
REMARK       I    between atoms: NE_15  and  CZ_16 
REMARK       I    between atoms: CZ_16  and  NH1_17 
REMARK    7  A    between atoms: N1_19  and  CA1_20 
REMARK    8  A    between atoms: CA1_20  and  C1_22 
REMARK    9  A    between atoms: CA1_20  and  CB1_24 
REMARK       I    between atoms: C1_22  and  N2_34 
REMARK   10  A    between atoms: N2_34  and  CA2_35 
REMARK   11  A    between atoms: CA2_35  and  C2_37 
REMARK   12  A    between atoms: CA2_35  and  CB2_39 
REMARK   13  A    between atoms: CB2_39  and  CG3_42 
REMARK   14  A    between atoms: N3_52  and  CA3_53 
REMARK   15  A    between atoms: CA3_53  and  C3_55 
REMARK   16  A    between atoms: CA3_53  and  CB3_57 
REMARK       I    between atoms: C3_55  and  N4_71 
REMARK   17  A    between atoms: CB3_57  and  CG4_60 
REMARK   18  A    between atoms: N4_71  and  CA4_72 
REMARK   19  A    between atoms: CA4_72  and  C4_74 
REMARK   20  A    between atoms: CA4_72  and  CB4_76 
REMARK       I    between atoms: C4_74  and  N5_85 
REMARK   21  A    between atoms: CB4_76  and  CG5_79 
REMARK   22  A    between atoms: CG5_79  and  CD3_82 
REMARK   23  A    between atoms: N5_85  and  CA5_86 
REMARK   24  A    between atoms: CA5_86  and  C5_88 
REMARK       I    between atoms: C5_88  and  N6_94 
REMARK   25  A    between atoms: N6_94  and  CA6_95 
REMARK   26  A    between atoms: CA6_95  and  C6_97 
REMARK   27  A    between atoms: CA6_95  and  CB6_99 
REMARK       I    between atoms: C6_97  and  N7_112 
REMARK   28  A    between atoms: CB6_99  and  CG6_102 
REMARK   29  A    between atoms: CG6_102  and  CD4_105 
ROOT
HETATM    1  N   0Q4 A 125     -11.807  14.818  36.539  1.00 21.27    -0.067 N 
HETATM    2  H   0Q4 A 125     -11.178  14.340  35.879  1.00 15.00     0.275 HD
HETATM    3  H2  0Q4 A 125     -11.714  15.862  36.456  1.00 15.00     0.275 HD
HETATM    4  HN3 0Q4 A 125     -11.567  14.521  37.498  1.00 15.00     0.275 HD
ENDROOT
BRANCH   1   5
HETATM    5  CA  0Q4 A 125     -13.241  14.515  36.243  1.00 21.76     0.274 C 
BRANCH   5   6
HETATM    6  C   0Q4 A 125     -13.341  13.879  34.820  1.00 21.89     0.249 C 
HETATM    7  O   0Q4 A 125     -12.942  12.716  34.621  1.00 22.48    -0.271 OA
HETATM    8  N1  0Q4 A 125     -13.933  14.616  33.867  1.00 19.10    -0.346 N 
HETATM    9  H1  0Q4 A 125     -14.228  15.536  34.041  1.00 15.00     0.163 HD
BRANCH   8  10
HETATM   10  CA1 0Q4 A 125     -14.152  14.137  32.501  1.00 18.90     0.180 C 
BRANCH  10  11
HETATM   11  C1  0Q4 A 125     -12.818  13.908  31.744  1.00 17.14     0.241 C 
HETATM   12  O1  0Q4 A 125     -12.558  12.858  31.169  1.00 18.87    -0.271 OA
HETATM   13  N2  0Q4 A 125     -11.919  14.870  31.848  1.00 17.78    -0.350 N 
HETATM   14  HN2 0Q4 A 125     -12.116  15.667  32.389  1.00 15.00     0.163 HD
BRANCH  13  15
HETATM   15  CA2 0Q4 A 125     -10.660  14.799  31.130  1.00 17.96     0.123 C 
BRANCH  15  16
HETATM   16  C2  0Q4 A 125      -9.393  14.903  31.969  1.00 17.56     0.081 C 
HETATM   17  N3  0Q4 A 125      -9.043  16.125  32.329  1.00 16.64    -0.387 N 
HETATM   18  H3  0Q4 A 125      -9.601  16.869  32.032  1.00 15.00     0.159 HD
BRANCH  17  19
HETATM   19  CA3 0Q4 A 125      -7.878  16.421  33.171  1.00 16.89     0.177 C 
BRANCH  19  20
HETATM   20  C3  0Q4 A 125      -6.724  16.745  32.182  1.00 15.06     0.241 C 
HETATM   21  O2  0Q4 A 125      -6.523  17.909  31.825  1.00 12.51    -0.271 OA
HETATM   22  N4  0Q4 A 125      -5.920  15.736  31.847  1.00 14.54    -0.346 N 
HETATM   23  H4  0Q4 A 125      -6.124  14.826  32.151  1.00 15.00     0.163 HD
BRANCH  22  24
HETATM   24  CA4 0Q4 A 125      -4.745  15.903  30.987  1.00 15.81     0.177 C 
BRANCH  24  25
HETATM   25  C4  0Q4 A 125      -3.485  16.434  31.679  1.00 17.52     0.241 C 
HETATM   26  O3  0Q4 A 125      -2.614  17.054  31.064  1.00 17.50    -0.271 OA
HETATM   27  N5  0Q4 A 125      -3.319  16.046  32.932  1.00 19.61    -0.346 N 
HETATM   28  H5  0Q4 A 125      -3.977  15.455  33.362  1.00 15.00     0.163 HD
BRANCH  27  29
HETATM   29  CA5 0Q4 A 125      -2.172  16.482  33.700  1.00 21.82     0.172 C 
HETATM   30  CB5 0Q4 A 125      -2.487  17.838  34.302  1.00 22.24     0.042 C 
BRANCH  29  31
HETATM   31  C5  0Q4 A 125      -1.676  15.529  34.816  1.00 24.09     0.240 C 
HETATM   32  O4  0Q4 A 125      -1.247  15.953  35.891  1.00 20.88    -0.271 OA
HETATM   33  N6  0Q4 A 125      -1.701  14.240  34.496  1.00 27.66    -0.346 N 
HETATM   34  H6  0Q4 A 125      -2.019  13.996  33.610  1.00 15.00     0.163 HD
BRANCH  33  35
HETATM   35  CA6 0Q4 A 125      -1.204  13.176  35.358  1.00 31.09     0.176 C 
BRANCH  35  36
HETATM   36  C6  0Q4 A 125       0.111  12.692  34.724  1.00 33.78     0.238 C 
HETATM   37  O5  0Q4 A 125       1.050  13.509  34.496  1.00 34.60    -0.271 OA
HETATM   38  N7  0Q4 A 125       0.169  11.473  34.426  1.00 36.53    -0.368 N 
HETATM   39  H72 0Q4 A 125      -0.587  10.814  34.610  1.00  0.00     0.159 HD
HETATM   40  H71 0Q4 A 125       1.041  11.153  34.005  1.00  0.00     0.159 HD
ENDBRANCH  35  36
BRANCH  35  41
HETATM   41  CB6 0Q4 A 125      -2.240  12.023  35.376  1.00 32.55     0.035 C 
BRANCH  41  42
HETATM   42  CG6 0Q4 A 125      -3.061  11.802  36.695  1.00 32.73     0.002 C 
BRANCH  42  43
HETATM   43  CD4 0Q4 A 125      -2.326  12.268  38.013  1.00 31.59    -0.004 C 
HETATM   44  CE  0Q4 A 125      -3.085  11.820  39.245  1.00 23.29     0.005 C 
ENDBRANCH  42  43
ENDBRANCH  41  42
ENDBRANCH  35  41
ENDBRANCH  33  35
ENDBRANCH  29  31
ENDBRANCH  27  29
ENDBRANCH  24  25
BRANCH  24  45
HETATM   45  CB4 0Q4 A 125      -5.112  16.828  29.793  1.00 17.07     0.045 C 
BRANCH  45  46
HETATM   46  CG5 0Q4 A 125      -5.403  16.164  28.461  1.00 18.50     0.116 C 
BRANCH  46  47
HETATM   47  CD3 0Q4 A 125      -6.105  17.095  27.462  1.00 26.68     0.172 C 
HETATM   48  OE1 0Q4 A 125      -6.260  16.706  26.289  1.00 29.71    -0.648 OA
HETATM   49  OE2 0Q4 A 125      -6.514  18.227  27.833  1.00 31.35    -0.648 OA
ENDBRANCH  46  47
ENDBRANCH  45  46
ENDBRANCH  24  45
ENDBRANCH  22  24
ENDBRANCH  19  20
BRANCH  19  50
HETATM   50  CB3 0Q4 A 125      -7.661  15.190  34.102  1.00 18.22     0.073 C 
BRANCH  50  51
HETATM   51  CG4 0Q4 A 125      -6.887  15.459  35.332  1.00 21.59    -0.056 A 
HETATM   52  CD1 0Q4 A 125      -5.527  15.185  35.387  1.00 22.99     0.007 A 
HETATM   53  CE1 0Q4 A 125      -4.769  15.481  36.544  1.00 24.00     0.001 A 
HETATM   54  CZ1 0Q4 A 125      -5.386  16.051  37.663  1.00 25.64     0.000 A 
HETATM   55  CE2 0Q4 A 125      -6.753  16.321  37.624  1.00 27.27     0.001 A 
HETATM   56  CD2 0Q4 A 125      -7.502  16.020  36.446  1.00 24.65     0.007 A 
ENDBRANCH  50  51
ENDBRANCH  19  50
ENDBRANCH  17  19
ENDBRANCH  15  16
BRANCH  15  57
HETATM   57  CB2 0Q4 A 125     -10.671  15.814  29.962  1.00 19.32     0.034 C 
BRANCH  57  58
HETATM   58  CG3 0Q4 A 125     -10.702  15.187  28.539  1.00 21.12    -0.020 C 
HETATM   59  CD1 0Q4 A 125     -11.669  15.896  27.593  1.00 21.22     0.009 C 
HETATM   60  CD2 0Q4 A 125      -9.307  15.186  27.942  1.00 17.47     0.009 C 
ENDBRANCH  57  58
ENDBRANCH  15  57
ENDBRANCH  13  15
ENDBRANCH  10  11
BRANCH  10  61
HETATM   61  CB1 0Q4 A 125     -15.189  15.105  31.730  1.00 19.28     0.009 C 
HETATM   62  CG1 0Q4 A 125     -15.406  16.420  32.483  1.00 20.08     0.012 C 
HETATM   63  CG2 0Q4 A 125     -14.666  15.453  30.322  1.00 19.54     0.012 C 
ENDBRANCH  10  61
ENDBRANCH   8  10
ENDBRANCH   5   6
BRANCH   5  64
HETATM   64  CB  0Q4 A 125     -14.063  15.803  36.381  1.00 21.80     0.044 C 
BRANCH  64  65
HETATM   65  CG  0Q4 A 125     -14.486  16.221  37.831  1.00 26.69     0.023 C 
BRANCH  65  66
HETATM   66  CD  0Q4 A 125     -14.897  17.724  38.021  1.00 29.76     0.138 C 
BRANCH  66  67
HETATM   67  NE  0Q4 A 125     -13.809  18.612  38.449  1.00 32.26    -0.227 N 
HETATM   68  CZ  0Q4 A 125     -13.631  19.051  39.697  1.00 34.72     0.665 C 
HETATM   69  NH1 0Q4 A 125     -14.466  18.664  40.647  1.00 35.07    -0.235 N 
HETATM   70  NH2 0Q4 A 125     -12.695  19.971  39.976  1.00 35.86    -0.235 N 
HETATM   71 HH11 0Q4 A 125     -15.220  18.046  40.431  1.00 15.00     0.174 HD
HETATM   72 HH12 0Q4 A 125     -14.342  18.987  41.586  1.00 15.00     0.174 HD
HETATM   73 HH21 0Q4 A 125     -12.116  20.340  39.251  1.00 15.00     0.174 HD
HETATM   74 HH22 0Q4 A 125     -12.581  20.287  40.920  1.00 15.00     0.174 HD
HETATM   75  HE  0Q4 A 125     -13.159  18.914  37.775  1.00 15.00     0.177 HD
ENDBRANCH  66  67
ENDBRANCH  65  66
ENDBRANCH  64  65
ENDBRANCH   5  64
ENDBRANCH   1   5
TORSDOF 29
ENDMDL
MODEL 11
REMARK VINA RESULT:      -5.3      2.127      9.268
REMARK  29 active torsions:
REMARK  status: ('A' for Active; 'I' for Inactive)
REMARK    1  A    between atoms: N_1  and  CA_2 
REMARK    2  A    between atoms: CA_2  and  C_4 
REMARK    3  A    between atoms: CA_2  and  CB_6 
REMARK       I    between atoms: C_4  and  N1_19 
REMARK    4  A    between atoms: CB_6  and  CG_9 
REMARK    5  A    between atoms: CG_9  and  CD_12 
REMARK    6  A    between atoms: CD_12  and  NE_15 
REMARK       I    between atoms: NE_15  and  CZ_16 
REMARK       I    between atoms: CZ_16  and  NH1_17 
REMARK    7  A    between atoms: N1_19  and  CA1_20 
REMARK    8  A    between atoms: CA1_20  and  C1_22 
REMARK    9  A    between atoms: CA1_20  and  CB1_24 
REMARK       I    between atoms: C1_22  and  N2_34 
REMARK   10  A    between atoms: N2_34  and  CA2_35 
REMARK   11  A    between atoms: CA2_35  and  C2_37 
REMARK   12  A    between atoms: CA2_35  and  CB2_39 
REMARK   13  A    between atoms: CB2_39  and  CG3_42 
REMARK   14  A    between atoms: N3_52  and  CA3_53 
REMARK   15  A    between atoms: CA3_53  and  C3_55 
REMARK   16  A    between atoms: CA3_53  and  CB3_57 
REMARK       I    between atoms: C3_55  and  N4_71 
REMARK   17  A    between atoms: CB3_57  and  CG4_60 
REMARK   18  A    between atoms: N4_71  and  CA4_72 
REMARK   19  A    between atoms: CA4_72  and  C4_74 
REMARK   20  A    between atoms: CA4_72  and  CB4_76 
REMARK       I    between atoms: C4_74  and  N5_85 
REMARK   21  A    between atoms: CB4_76  and  CG5_79 
REMARK   22  A    between atoms: CG5_79  and  CD3_82 
REMARK   23  A    between atoms: N5_85  and  CA5_86 
REMARK   24  A    between atoms: CA5_86  and  C5_88 
REMARK       I    between atoms: C5_88  and  N6_94 
REMARK   25  A    between atoms: N6_94  and  CA6_95 
REMARK   26  A    between atoms: CA6_95  and  C6_97 
REMARK   27  A    between atoms: CA6_95  and  CB6_99 
REMARK       I    between atoms: C6_97  and  N7_112 
REMARK   28  A    between atoms: CB6_99  and  CG6_102 
REMARK   29  A    between atoms: CG6_102  and  CD4_105 
ROOT
HETATM    1  N   0Q4 A 125      -5.438  17.196  27.884  1.00 21.27    -0.067 N 
HETATM    2  H   0Q4 A 125      -5.705  17.289  26.895  1.00 15.00     0.275 HD
HETATM    3  H2  0Q4 A 125      -4.405  17.345  28.009  1.00 15.00     0.275 HD
HETATM    4  HN3 0Q4 A 125      -5.697  16.251  28.210  1.00 15.00     0.275 HD
ENDROOT
BRANCH   1   5
HETATM    5  CA  0Q4 A 125      -6.100  18.238  28.728  1.00 21.76     0.274 C 
BRANCH   5   6
HETATM    6  C   0Q4 A 125      -7.630  18.252  28.409  1.00 21.89     0.249 C 
HETATM    7  O   0Q4 A 125      -8.214  19.327  28.178  1.00 22.48    -0.271 OA
HETATM    8  N1  0Q4 A 125      -8.243  17.060  28.329  1.00 19.10    -0.346 N 
HETATM    9  H1  0Q4 A 125      -7.767  16.226  28.528  1.00 15.00     0.163 HD
BRANCH   8  10
HETATM   10  CA1 0Q4 A 125      -9.657  16.907  27.983  1.00 18.90     0.180 C 
BRANCH  10  11
HETATM   11  C1  0Q4 A 125     -10.426  16.065  29.034  1.00 17.14     0.241 C 
HETATM   12  O1  0Q4 A 125      -9.857  15.402  29.892  1.00 18.87    -0.271 OA
HETATM   13  N2  0Q4 A 125     -11.737  16.004  28.883  1.00 17.78    -0.350 N 
HETATM   14  HN2 0Q4 A 125     -12.165  16.473  28.132  1.00 15.00     0.163 HD
BRANCH  13  15
HETATM   15  CA2 0Q4 A 125     -12.570  15.302  29.842  1.00 17.96     0.123 C 
BRANCH  15  16
HETATM   16  C2  0Q4 A 125     -12.289  15.577  31.313  1.00 17.56     0.081 C 
HETATM   17  N3  0Q4 A 125     -11.806  14.560  32.004  1.00 16.64    -0.387 N 
HETATM   18  H3  0Q4 A 125     -11.671  13.712  31.539  1.00 15.00     0.159 HD
BRANCH  17  19
HETATM   19  CA3 0Q4 A 125     -11.436  14.645  33.422  1.00 16.89     0.177 C 
BRANCH  19  20
HETATM   20  C3  0Q4 A 125      -9.883  14.591  33.447  1.00 15.06     0.241 C 
HETATM   21  O2  0Q4 A 125      -9.297  13.516  33.302  1.00 12.51    -0.271 OA
HETATM   22  N4  0Q4 A 125      -9.243  15.759  33.517  1.00 14.54    -0.346 N 
HETATM   23  H4  0Q4 A 125      -9.752  16.590  33.638  1.00 15.00     0.163 HD
BRANCH  22  24
HETATM   24  CA4 0Q4 A 125      -7.783  15.874  33.471  1.00 15.81     0.177 C 
BRANCH  24  25
HETATM   25  C4  0Q4 A 125      -7.133  16.568  34.673  1.00 17.52     0.241 C 
HETATM   26  O3  0Q4 A 125      -7.234  17.783  34.859  1.00 17.50    -0.271 OA
HETATM   27  N5  0Q4 A 125      -6.330  15.810  35.400  1.00 19.61    -0.346 N 
HETATM   28  H5  0Q4 A 125      -6.180  14.869  35.160  1.00 15.00     0.163 HD
BRANCH  27  29
HETATM   29  CA5 0Q4 A 125      -5.659  16.343  36.566  1.00 21.82     0.172 C 
HETATM   30  CB5 0Q4 A 125      -6.517  16.059  37.785  1.00 22.24     0.042 C 
BRANCH  29  31
HETATM   31  C5  0Q4 A 125      -4.216  15.846  36.830  1.00 24.09     0.240 C 
HETATM   32  O4  0Q4 A 125      -3.851  15.465  37.944  1.00 20.88    -0.271 OA
HETATM   33  N6  0Q4 A 125      -3.404  15.918  35.780  1.00 27.66    -0.346 N 
HETATM   34  H6  0Q4 A 125      -3.765  16.268  34.947  1.00 15.00     0.163 HD
BRANCH  33  35
HETATM   35  CA6 0Q4 A 125      -1.987  15.583  35.821  1.00 31.09     0.176 C 
BRANCH  35  36
HETATM   36  C6  0Q4 A 125      -1.250  16.771  35.180  1.00 33.78     0.238 C 
HETATM   37  O5  0Q4 A 125      -1.748  17.371  34.182  1.00 34.60    -0.271 OA
HETATM   38  N7  0Q4 A 125      -0.137  17.071  35.680  1.00 36.53    -0.368 N 
HETATM   39  H72 0Q4 A 125       0.264  16.589  36.484  1.00  0.00     0.159 HD
HETATM   40  H71 0Q4 A 125       0.351  17.859  35.255  1.00  0.00     0.159 HD
ENDBRANCH  35  36
BRANCH  35  41
HETATM   41  CB6 0Q4 A 125      -1.754  14.300  34.983  1.00 32.55     0.035 C 
BRANCH  41  42
HETATM   42  CG6 0Q4 A 125      -0.432  13.493  35.240  1.00 32.73     0.002 C 
BRANCH  42  43
HETATM   43  CD4 0Q4 A 125      -0.161  13.141  36.755  1.00 31.59    -0.004 C 
HETATM   44  CE  0Q4 A 125      -1.289  12.308  37.330  1.00 23.29     0.005 C 
ENDBRANCH  42  43
ENDBRANCH  41  42
ENDBRANCH  35  41
ENDBRANCH  33  35
ENDBRANCH  29  31
ENDBRANCH  27  29
ENDBRANCH  24  25
BRANCH  24  45
HETATM   45  CB4 0Q4 A 125      -7.368  16.602  32.161  1.00 17.07     0.045 C 
BRANCH  45  46
HETATM   46  CG5 0Q4 A 125      -6.384  15.892  31.252  1.00 18.50     0.116 C 
BRANCH  46  47
HETATM   47  CD3 0Q4 A 125      -4.918  16.193  31.597  1.00 26.68     0.172 C 
HETATM   48  OE1 0Q4 A 125      -4.555  16.110  32.786  1.00 29.71    -0.648 OA
HETATM   49  OE2 0Q4 A 125      -4.107  16.512  30.687  1.00 31.35    -0.648 OA
ENDBRANCH  46  47
ENDBRANCH  45  46
ENDBRANCH  24  45
ENDBRANCH  22  24
ENDBRANCH  19  20
BRANCH  19  50
HETATM   50  CB3 0Q4 A 125     -12.177  13.490  34.159  1.00 18.22     0.073 C 
BRANCH  50  51
HETATM   51  CG4 0Q4 A 125     -12.829  13.870  35.431  1.00 21.59    -0.056 A 
HETATM   52  CD1 0Q4 A 125     -13.030  12.930  36.432  1.00 22.99     0.007 A 
HETATM   53  CE1 0Q4 A 125     -13.611  13.294  37.668  1.00 24.00     0.001 A 
HETATM   54  CZ1 0Q4 A 125     -14.003  14.617  37.900  1.00 25.64     0.000 A 
HETATM   55  CE2 0Q4 A 125     -13.816  15.568  36.898  1.00 27.27     0.001 A 
HETATM   56  CD2 0Q4 A 125     -13.224  15.184  35.657  1.00 24.65     0.007 A 
ENDBRANCH  50  51
ENDBRANCH  19  50
ENDBRANCH  17  19
ENDBRANCH  15  16
BRANCH  15  57
HETATM   57  CB2 0Q4 A 125     -12.569  13.788  29.521  1.00 19.32     0.034 C 
BRANCH  57  58
HETATM   58  CG3 0Q4 A 125     -13.957  13.185  29.163  1.00 21.12    -0.020 C 
HETATM   59  CD1 0Q4 A 125     -15.115  14.143  29.440  1.00 21.22     0.009 C 
HETATM   60  CD2 0Q4 A 125     -13.978  12.761  27.706  1.00 17.47     0.009 C 
ENDBRANCH  57  58
ENDBRANCH  15  57
ENDBRANCH  13  15
ENDBRANCH  10  11
BRANCH  10  61
HETATM   61  CB1 0Q4 A 125      -9.804  16.365  26.469  1.00 19.28     0.009 C 
HETATM   62  CG1 0Q4 A 125     -10.105  17.498  25.485  1.00 20.08     0.012 C 
HETATM   63  CG2 0Q4 A 125      -8.504  15.676  26.008  1.00 19.54     0.012 C 
ENDBRANCH  10  61
ENDBRANCH   8  10
ENDBRANCH   5   6
BRANCH   5  64
HETATM   64  CB  0Q4 A 125      -5.424  19.591  28.475  1.00 21.80     0.044 C 
BRANCH  64  65
HETATM   65  CG  0Q4 A 125      -4.270  19.619  27.415  1.00 26.69     0.023 C 
BRANCH  65  66
HETATM   66  CD  0Q4 A 125      -2.812  19.488  27.981  1.00 29.76     0.138 C 
BRANCH  66  67
HETATM   67  NE  0Q4 A 125      -2.724  18.913  29.330  1.00 32.26    -0.227 N 
HETATM   68  CZ  0Q4 A 125      -1.590  18.765  30.020  1.00 34.72     0.665 C 
HETATM   69  NH1 0Q4 A 125      -0.449  19.169  29.489  1.00 35.07    -0.235 N 
HETATM   70  NH2 0Q4 A 125      -1.578  18.102  31.187  1.00 35.86    -0.235 N 
HETATM   71 HH11 0Q4 A 125      -0.437  19.585  28.582  1.00 15.00     0.174 HD
HETATM   72 HH12 0Q4 A 125       0.407  19.063  29.999  1.00 15.00     0.174 HD
HETATM   73 HH21 0Q4 A 125      -2.419  17.712  31.557  1.00 15.00     0.174 HD
HETATM   74 HH22 0Q4 A 125      -0.715  18.002  31.686  1.00 15.00     0.174 HD
HETATM   75  HE  0Q4 A 125      -3.552  18.610  29.765  1.00 15.00     0.177 HD
ENDBRANCH  66  67
ENDBRANCH  65  66
ENDBRANCH  64  65
ENDBRANCH   5  64
ENDBRANCH   1   5
TORSDOF 29
ENDMDL
MODEL 12
REMARK VINA RESULT:      -5.3      2.647      8.068
REMARK  29 active torsions:
REMARK  status: ('A' for Active; 'I' for Inactive)
REMARK    1  A    between atoms: N_1  and  CA_2 
REMARK    2  A    between atoms: CA_2  and  C_4 
REMARK    3  A    between atoms: CA_2  and  CB_6 
REMARK       I    between atoms: C_4  and  N1_19 
REMARK    4  A    between atoms: CB_6  and  CG_9 
REMARK    5  A    between atoms: CG_9  and  CD_12 
REMARK    6  A    between atoms: CD_12  and  NE_15 
REMARK       I    between atoms: NE_15  and  CZ_16 
REMARK       I    between atoms: CZ_16  and  NH1_17 
REMARK    7  A    between atoms: N1_19  and  CA1_20 
REMARK    8  A    between atoms: CA1_20  and  C1_22 
REMARK    9  A    between atoms: CA1_20  and  CB1_24 
REMARK       I    between atoms: C1_22  and  N2_34 
REMARK   10  A    between atoms: N2_34  and  CA2_35 
REMARK   11  A    between atoms: CA2_35  and  C2_37 
REMARK   12  A    between atoms: CA2_35  and  CB2_39 
REMARK   13  A    between atoms: CB2_39  and  CG3_42 
REMARK   14  A    between atoms: N3_52  and  CA3_53 
REMARK   15  A    between atoms: CA3_53  and  C3_55 
REMARK   16  A    between atoms: CA3_53  and  CB3_57 
REMARK       I    between atoms: C3_55  and  N4_71 
REMARK   17  A    between atoms: CB3_57  and  CG4_60 
REMARK   18  A    between atoms: N4_71  and  CA4_72 
REMARK   19  A    between atoms: CA4_72  and  C4_74 
REMARK   20  A    between atoms: CA4_72  and  CB4_76 
REMARK       I    between atoms: C4_74  and  N5_85 
REMARK   21  A    between atoms: CB4_76  and  CG5_79 
REMARK   22  A    between atoms: CG5_79  and  CD3_82 
REMARK   23  A    between atoms: N5_85  and  CA5_86 
REMARK   24  A    between atoms: CA5_86  and  C5_88 
REMARK       I    between atoms: C5_88  and  N6_94 
REMARK   25  A    between atoms: N6_94  and  CA6_95 
REMARK   26  A    between atoms: CA6_95  and  C6_97 
REMARK   27  A    between atoms: CA6_95  and  CB6_99 
REMARK       I    between atoms: C6_97  and  N7_112 
REMARK   28  A    between atoms: CB6_99  and  CG6_102 
REMARK   29  A    between atoms: CG6_102  and  CD4_105 
ROOT
HETATM    1  N   0Q4 A 125     -11.905  16.326  31.161  1.00 21.27    -0.067 N 
HETATM    2  H   0Q4 A 125     -12.599  16.850  31.712  1.00 15.00     0.275 HD
HETATM    3  H2  0Q4 A 125     -11.117  16.953  30.858  1.00 15.00     0.275 HD
HETATM    4  HN3 0Q4 A 125     -12.373  15.927  30.332  1.00 15.00     0.275 HD
ENDROOT
BRANCH   1   5
HETATM    5  CA  0Q4 A 125     -11.270  15.243  31.972  1.00 21.76     0.274 C 
BRANCH   5   6
HETATM    6  C   0Q4 A 125      -9.774  15.099  31.544  1.00 21.89     0.249 C 
HETATM    7  O   0Q4 A 125      -9.088  14.149  31.965  1.00 22.48    -0.271 OA
HETATM    8  N1  0Q4 A 125      -9.307  15.999  30.663  1.00 19.10    -0.346 N 
HETATM    9  H1  0Q4 A 125      -9.861  16.748  30.356  1.00 15.00     0.163 HD
BRANCH   8  10
HETATM   10  CA1 0Q4 A 125      -7.946  15.963  30.125  1.00 18.90     0.180 C 
BRANCH  10  11
HETATM   11  C1  0Q4 A 125      -6.969  16.835  30.955  1.00 17.14     0.241 C 
HETATM   12  O1  0Q4 A 125      -6.624  17.956  30.604  1.00 18.87    -0.271 OA
HETATM   13  N2  0Q4 A 125      -6.429  16.256  32.013  1.00 17.78    -0.350 N 
HETATM   14  HN2 0Q4 A 125      -6.653  15.322  32.227  1.00 15.00     0.163 HD
BRANCH  13  15
HETATM   15  CA2 0Q4 A 125      -5.552  16.992  32.904  1.00 17.96     0.123 C 
BRANCH  15  16
HETATM   16  C2  0Q4 A 125      -4.187  16.375  33.175  1.00 17.56     0.081 C 
HETATM   17  N3  0Q4 A 125      -3.306  17.167  33.759  1.00 16.64    -0.387 N 
HETATM   18  H3  0Q4 A 125      -3.577  18.081  33.966  1.00 15.00     0.159 HD
BRANCH  17  19
HETATM   19  CA3 0Q4 A 125      -1.954  16.738  34.136  1.00 16.89     0.177 C 
BRANCH  19  20
HETATM   20  C3  0Q4 A 125      -1.022  17.274  33.013  1.00 15.06     0.241 C 
HETATM   21  O2  0Q4 A 125      -0.537  16.498  32.186  1.00 12.51    -0.271 OA
HETATM   22  N4  0Q4 A 125      -0.879  18.597  32.933  1.00 14.54    -0.346 N 
HETATM   23  H4  0Q4 A 125      -1.279  19.176  33.618  1.00 15.00     0.163 HD
BRANCH  22  24
HETATM   24  CA4 0Q4 A 125      -0.097  19.254  31.882  1.00 15.81     0.177 C 
BRANCH  24  25
HETATM   25  C4  0Q4 A 125      -0.544  18.969  30.444  1.00 17.52     0.241 C 
HETATM   26  O3  0Q4 A 125       0.226  19.073  29.488  1.00 17.50    -0.271 OA
HETATM   27  N5  0Q4 A 125      -1.841  18.763  30.283  1.00 19.61    -0.346 N 
HETATM   28  H5  0Q4 A 125      -2.450  18.798  31.053  1.00 15.00     0.163 HD
BRANCH  27  29
HETATM   29  CA5 0Q4 A 125      -2.391  18.476  28.976  1.00 21.82     0.172 C 
HETATM   30  CB5 0Q4 A 125      -3.462  17.413  29.128  1.00 22.24     0.042 C 
BRANCH  29  31
HETATM   31  C5  0Q4 A 125      -2.970  19.676  28.184  1.00 24.09     0.240 C 
HETATM   32  O4  0Q4 A 125      -2.258  20.603  27.792  1.00 20.88    -0.271 OA
HETATM   33  N6  0Q4 A 125      -4.288  19.646  28.019  1.00 27.66    -0.346 N 
HETATM   34  H6  0Q4 A 125      -4.778  18.895  28.395  1.00 15.00     0.163 HD
BRANCH  33  35
HETATM   35  CA6 0Q4 A 125      -5.054  20.708  27.380  1.00 31.09     0.176 C 
BRANCH  35  36
HETATM   36  C6  0Q4 A 125      -6.119  21.139  28.402  1.00 33.78     0.238 C 
HETATM   37  O5  0Q4 A 125      -6.869  22.131  28.165  1.00 34.60    -0.271 OA
HETATM   38  N7  0Q4 A 125      -6.165  20.479  29.469  1.00 36.53    -0.368 N 
HETATM   39  H72 0Q4 A 125      -5.561  19.680  29.661  1.00  0.00     0.159 HD
HETATM   40  H71 0Q4 A 125      -6.871  20.766  30.147  1.00  0.00     0.159 HD
ENDBRANCH  35  36
BRANCH  35  41
HETATM   41  CB6 0Q4 A 125      -5.738  20.136  26.111  1.00 32.55     0.035 C 
BRANCH  41  42
HETATM   42  CG6 0Q4 A 125      -6.983  19.202  26.314  1.00 32.73     0.002 C 
BRANCH  42  43
HETATM   43  CD4 0Q4 A 125      -8.214  19.537  25.383  1.00 31.59    -0.004 C 
HETATM   44  CE  0Q4 A 125      -9.387  20.047  26.196  1.00 23.29     0.005 C 
ENDBRANCH  42  43
ENDBRANCH  41  42
ENDBRANCH  35  41
ENDBRANCH  33  35
ENDBRANCH  29  31
ENDBRANCH  27  29
ENDBRANCH  24  25
BRANCH  24  45
HETATM   45  CB4 0Q4 A 125       1.401  18.874  32.046  1.00 17.07     0.045 C 
BRANCH  45  46
HETATM   46  CG5 0Q4 A 125       2.163  19.524  33.185  1.00 18.50     0.116 C 
BRANCH  46  47
HETATM   47  CD3 0Q4 A 125       2.457  18.559  34.343  1.00 26.68     0.172 C 
HETATM   48  OE1 0Q4 A 125       2.334  17.336  34.147  1.00 29.71    -0.648 OA
HETATM   49  OE2 0Q4 A 125       2.819  19.008  35.463  1.00 31.35    -0.648 OA
ENDBRANCH  46  47
ENDBRANCH  45  46
ENDBRANCH  24  45
ENDBRANCH  22  24
ENDBRANCH  19  20
BRANCH  19  50
HETATM   50  CB3 0Q4 A 125      -1.996  15.191  34.316  1.00 18.22     0.073 C 
BRANCH  50  51
HETATM   51  CG4 0Q4 A 125      -2.320  14.723  35.679  1.00 21.59    -0.056 A 
HETATM   52  CD1 0Q4 A 125      -2.867  15.591  36.615  1.00 22.99     0.007 A 
HETATM   53  CE1 0Q4 A 125      -3.222  15.140  37.908  1.00 24.00     0.001 A 
HETATM   54  CZ1 0Q4 A 125      -3.019  13.804  38.268  1.00 25.64     0.000 A 
HETATM   55  CE2 0Q4 A 125      -2.462  12.924  37.341  1.00 27.27     0.001 A 
HETATM   56  CD2 0Q4 A 125      -2.113  13.395  36.039  1.00 24.65     0.007 A 
ENDBRANCH  50  51
ENDBRANCH  19  50
ENDBRANCH  17  19
ENDBRANCH  15  16
BRANCH  15  57
HETATM   57  CB2 0Q4 A 125      -6.308  17.333  34.211  1.00 19.32     0.034 C 
BRANCH  57  58
HETATM   58  CG3 0Q4 A 125      -6.231  16.250  35.324  1.00 21.12    -0.020 C 
HETATM   59  CD1 0Q4 A 125      -6.580  16.789  36.710  1.00 21.22     0.009 C 
HETATM   60  CD2 0Q4 A 125      -7.145  15.088  34.980  1.00 17.47     0.009 C 
ENDBRANCH  57  58
ENDBRANCH  15  57
ENDBRANCH  13  15
ENDBRANCH  10  11
BRANCH  10  61
HETATM   61  CB1 0Q4 A 125      -7.962  16.311  28.548  1.00 19.28     0.009 C 
HETATM   62  CG1 0Q4 A 125      -7.722  15.068  27.689  1.00 20.08     0.012 C 
HETATM   63  CG2 0Q4 A 125      -9.322  16.910  28.136  1.00 19.54     0.012 C 
ENDBRANCH  10  61
ENDBRANCH   8  10
ENDBRANCH   5   6
BRANCH   5  64
HETATM   64  CB  0Q4 A 125     -12.070  13.947  31.790  1.00 21.80     0.044 C 
BRANCH  64  65
HETATM   65  CG  0Q4 A 125     -12.700  13.316  33.079  1.00 26.69     0.023 C 
BRANCH  65  66
HETATM   66  CD  0Q4 A 125     -11.788  13.305  34.357  1.00 29.76     0.138 C 
BRANCH  66  67
HETATM   67  NE  0Q4 A 125     -12.477  12.947  35.604  1.00 32.26    -0.227 N 
HETATM   68  CZ  0Q4 A 125     -12.852  13.819  36.543  1.00 34.72     0.665 C 
HETATM   69  NH1 0Q4 A 125     -12.616  15.108  36.364  1.00 35.07    -0.235 N 
HETATM   70  NH2 0Q4 A 125     -13.349  13.395  37.715  1.00 35.86    -0.235 N 
HETATM   71 HH11 0Q4 A 125     -12.166  15.425  35.531  1.00 15.00     0.174 HD
HETATM   72 HH12 0Q4 A 125     -12.892  15.770  37.062  1.00 15.00     0.174 HD
HETATM   73 HH21 0Q4 A 125     -13.448  12.419  37.900  1.00 15.00     0.174 HD
HETATM   74 HH22 0Q4 A 125     -13.621  14.068  38.405  1.00 15.00     0.174 HD
HETATM   75  HE  0Q4 A 125     -12.681  12.000  35.770  1.00 15.00     0.177 HD
ENDBRANCH  66  67
ENDBRANCH  65  66
ENDBRANCH  64  65
ENDBRANCH   5  64
ENDBRANCH   1   5
TORSDOF 29
ENDMDL
MODEL 13
REMARK VINA RESULT:      -5.3      3.607     11.093
REMARK  29 active torsions:
REMARK  status: ('A' for Active; 'I' for Inactive)
REMARK    1  A    between atoms: N_1  and  CA_2 
REMARK    2  A    between atoms: CA_2  and  C_4 
REMARK    3  A    between atoms: CA_2  and  CB_6 
REMARK       I    between atoms: C_4  and  N1_19 
REMARK    4  A    between atoms: CB_6  and  CG_9 
REMARK    5  A    between atoms: CG_9  and  CD_12 
REMARK    6  A    between atoms: CD_12  and  NE_15 
REMARK       I    between atoms: NE_15  and  CZ_16 
REMARK       I    between atoms: CZ_16  and  NH1_17 
REMARK    7  A    between atoms: N1_19  and  CA1_20 
REMARK    8  A    between atoms: CA1_20  and  C1_22 
REMARK    9  A    between atoms: CA1_20  and  CB1_24 
REMARK       I    between atoms: C1_22  and  N2_34 
REMARK   10  A    between atoms: N2_34  and  CA2_35 
REMARK   11  A    between atoms: CA2_35  and  C2_37 
REMARK   12  A    between atoms: CA2_35  and  CB2_39 
REMARK   13  A    between atoms: CB2_39  and  CG3_42 
REMARK   14  A    between atoms: N3_52  and  CA3_53 
REMARK   15  A    between atoms: CA3_53  and  C3_55 
REMARK   16  A    between atoms: CA3_53  and  CB3_57 
REMARK       I    between atoms: C3_55  and  N4_71 
REMARK   17  A    between atoms: CB3_57  and  CG4_60 
REMARK   18  A    between atoms: N4_71  and  CA4_72 
REMARK   19  A    between atoms: CA4_72  and  C4_74 
REMARK   20  A    between atoms: CA4_72  and  CB4_76 
REMARK       I    between atoms: C4_74  and  N5_85 
REMARK   21  A    between atoms: CB4_76  and  CG5_79 
REMARK   22  A    between atoms: CG5_79  and  CD3_82 
REMARK   23  A    between atoms: N5_85  and  CA5_86 
REMARK   24  A    between atoms: CA5_86  and  C5_88 
REMARK       I    between atoms: C5_88  and  N6_94 
REMARK   25  A    between atoms: N6_94  and  CA6_95 
REMARK   26  A    between atoms: CA6_95  and  C6_97 
REMARK   27  A    between atoms: CA6_95  and  CB6_99 
REMARK       I    between atoms: C6_97  and  N7_112 
REMARK   28  A    between atoms: CB6_99  and  CG6_102 
REMARK   29  A    between atoms: CG6_102  and  CD4_105 
ROOT
HETATM    1  N   0Q4 A 125     -14.014  13.692  37.885  1.00 21.27    -0.067 N 
HETATM    2  H   0Q4 A 125     -14.937  13.344  38.177  1.00 15.00     0.275 HD
HETATM    3  H2  0Q4 A 125     -13.389  12.898  37.594  1.00 15.00     0.275 HD
HETATM    4  HN3 0Q4 A 125     -13.587  14.202  38.675  1.00 15.00     0.275 HD
ENDROOT
BRANCH   1   5
HETATM    5  CA  0Q4 A 125     -14.119  14.582  36.688  1.00 21.76     0.274 C 
BRANCH   5   6
HETATM    6  C   0Q4 A 125     -13.168  14.044  35.571  1.00 21.89     0.249 C 
HETATM    7  O   0Q4 A 125     -12.589  12.951  35.711  1.00 22.48    -0.271 OA
HETATM    8  N1  0Q4 A 125     -13.073  14.779  34.451  1.00 19.10    -0.346 N 
HETATM    9  H1  0Q4 A 125     -13.527  15.644  34.367  1.00 15.00     0.163 HD
BRANCH   8  10
HETATM   10  CA1 0Q4 A 125     -12.268  14.379  33.295  1.00 18.90     0.180 C 
BRANCH  10  11
HETATM   11  C1  0Q4 A 125     -11.010  15.270  33.126  1.00 17.14     0.241 C 
HETATM   12  O1  0Q4 A 125     -11.052  16.378  32.606  1.00 18.87    -0.271 OA
HETATM   13  N2  0Q4 A 125      -9.858  14.720  33.467  1.00 17.78    -0.350 N 
HETATM   14  HN2 0Q4 A 125      -9.838  13.795  33.799  1.00 15.00     0.163 HD
BRANCH  13  15
HETATM   15  CA2 0Q4 A 125      -8.622  15.478  33.415  1.00 17.96     0.123 C 
BRANCH  15  16
HETATM   16  C2  0Q4 A 125      -7.794  15.340  32.145  1.00 17.56     0.081 C 
HETATM   17  N3  0Q4 A 125      -7.314  16.467  31.649  1.00 16.64    -0.387 N 
HETATM   18  H3  0Q4 A 125      -7.525  17.299  32.113  1.00 15.00     0.159 HD
BRANCH  17  19
HETATM   19  CA3 0Q4 A 125      -6.461  16.529  30.457  1.00 16.89     0.177 C 
BRANCH  19  20
HETATM   20  C3  0Q4 A 125      -5.058  16.055  30.927  1.00 15.06     0.241 C 
HETATM   21  O2  0Q4 A 125      -4.456  15.179  30.300  1.00 12.51    -0.271 OA
HETATM   22  N4  0Q4 A 125      -4.513  16.715  31.950  1.00 14.54    -0.346 N 
HETATM   23  H4  0Q4 A 125      -5.032  17.401  32.422  1.00 15.00     0.163 HD
BRANCH  22  24
HETATM   24  CA4 0Q4 A 125      -3.166  16.434  32.455  1.00 15.81     0.177 C 
BRANCH  24  25
HETATM   25  C4  0Q4 A 125      -2.938  16.731  33.941  1.00 17.52     0.241 C 
HETATM   26  O3  0Q4 A 125      -2.797  17.881  34.363  1.00 17.50    -0.271 OA
HETATM   27  N5  0Q4 A 125      -2.743  15.672  34.708  1.00 19.61    -0.346 N 
HETATM   28  H5  0Q4 A 125      -2.749  14.769  34.322  1.00 15.00     0.163 HD
BRANCH  27  29
HETATM   29  CA5 0Q4 A 125      -2.523  15.816  36.131  1.00 21.82     0.172 C 
HETATM   30  CB5 0Q4 A 125      -3.682  15.167  36.864  1.00 22.24     0.042 C 
BRANCH  29  31
HETATM   31  C5  0Q4 A 125      -1.189  15.261  36.690  1.00 24.09     0.240 C 
HETATM   32  O4  0Q4 A 125      -1.160  14.385  37.557  1.00 20.88    -0.271 OA
HETATM   33  N6  0Q4 A 125      -0.099  15.844  36.203  1.00 27.66    -0.346 N 
HETATM   34  H6  0Q4 A 125      -0.214  16.555  35.550  1.00 15.00     0.163 HD
BRANCH  33  35
HETATM   35  CA6 0Q4 A 125       1.255  15.540  36.647  1.00 31.09     0.176 C 
BRANCH  35  36
HETATM   36  C6  0Q4 A 125       1.924  16.894  36.935  1.00 33.78     0.238 C 
HETATM   37  O5  0Q4 A 125       3.046  16.943  37.519  1.00 34.60    -0.271 OA
HETATM   38  N7  0Q4 A 125       1.280  17.917  36.592  1.00 36.53    -0.368 N 
HETATM   39  H72 0Q4 A 125       0.376  17.878  36.122  1.00  0.00     0.159 HD
HETATM   40  H71 0Q4 A 125       1.723  18.815  36.784  1.00  0.00     0.159 HD
ENDBRANCH  35  36
BRANCH  35  41
HETATM   41  CB6 0Q4 A 125       2.004  14.812  35.500  1.00 32.55     0.035 C 
BRANCH  41  42
HETATM   42  CG6 0Q4 A 125       1.801  13.262  35.368  1.00 32.73     0.002 C 
BRANCH  42  43
HETATM   43  CD4 0Q4 A 125       0.591  12.832  34.448  1.00 31.59    -0.004 C 
HETATM   44  CE  0Q4 A 125       0.266  11.364  34.628  1.00 23.29     0.005 C 
ENDBRANCH  42  43
ENDBRANCH  41  42
ENDBRANCH  35  41
ENDBRANCH  33  35
ENDBRANCH  29  31
ENDBRANCH  27  29
ENDBRANCH  24  25
BRANCH  24  45
HETATM   45  CB4 0Q4 A 125      -2.127  17.215  31.602  1.00 17.07     0.045 C 
BRANCH  45  46
HETATM   46  CG5 0Q4 A 125      -0.687  16.743  31.654  1.00 18.50     0.116 C 
BRANCH  46  47
HETATM   47  CD3 0Q4 A 125       0.225  17.677  32.464  1.00 26.68     0.172 C 
HETATM   48  OE1 0Q4 A 125       0.702  18.681  31.902  1.00 29.71    -0.648 OA
HETATM   49  OE2 0Q4 A 125       0.476  17.424  33.672  1.00 31.35    -0.648 OA
ENDBRANCH  46  47
ENDBRANCH  45  46
ENDBRANCH  24  45
ENDBRANCH  22  24
ENDBRANCH  19  20
BRANCH  19  50
HETATM   50  CB3 0Q4 A 125      -6.546  17.985  29.907  1.00 18.22     0.073 C 
BRANCH  50  51
HETATM   51  CG4 0Q4 A 125      -5.738  18.252  28.699  1.00 21.59    -0.056 A 
HETATM   52  CD1 0Q4 A 125      -4.708  19.182  28.727  1.00 22.99     0.007 A 
HETATM   53  CE1 0Q4 A 125      -3.900  19.410  27.589  1.00 24.00     0.001 A 
HETATM   54  CZ1 0Q4 A 125      -4.135  18.702  26.405  1.00 25.64     0.000 A 
HETATM   55  CE2 0Q4 A 125      -5.173  17.773  26.361  1.00 27.27     0.001 A 
HETATM   56  CD2 0Q4 A 125      -5.976  17.551  27.521  1.00 24.65     0.007 A 
ENDBRANCH  50  51
ENDBRANCH  19  50
ENDBRANCH  17  19
ENDBRANCH  15  16
BRANCH  15  57
HETATM   57  CB2 0Q4 A 125      -7.788  15.199  34.689  1.00 19.32     0.034 C 
BRANCH  57  58
HETATM   58  CG3 0Q4 A 125      -7.540  16.432  35.603  1.00 21.12    -0.020 C 
HETATM   59  CD1 0Q4 A 125      -7.291  16.055  37.063  1.00 21.22     0.009 C 
HETATM   60  CD2 0Q4 A 125      -6.371  17.243  35.075  1.00 17.47     0.009 C 
ENDBRANCH  57  58
ENDBRANCH  15  57
ENDBRANCH  13  15
ENDBRANCH  10  11
BRANCH  10  61
HETATM   61  CB1 0Q4 A 125     -13.194  14.289  31.976  1.00 19.28     0.009 C 
HETATM   62  CG1 0Q4 A 125     -12.901  13.028  31.160  1.00 20.08     0.012 C 
HETATM   63  CG2 0Q4 A 125     -14.687  14.264  32.359  1.00 19.54     0.012 C 
ENDBRANCH  10  61
ENDBRANCH   8  10
ENDBRANCH   5   6
BRANCH   5  64
HETATM   64  CB  0Q4 A 125     -13.797  16.022  37.104  1.00 21.80     0.044 C 
BRANCH  64  65
HETATM   65  CG  0Q4 A 125     -14.611  16.610  38.308  1.00 26.69     0.023 C 
BRANCH  65  66
HETATM   66  CD  0Q4 A 125     -14.473  18.156  38.542  1.00 29.76     0.138 C 
BRANCH  66  67
HETATM   67  NE  0Q4 A 125     -14.190  18.547  39.930  1.00 32.26    -0.227 N 
HETATM   68  CZ  0Q4 A 125     -13.267  19.439  40.296  1.00 34.72     0.665 C 
HETATM   69  NH1 0Q4 A 125     -12.547  20.046  39.368  1.00 35.07    -0.235 N 
HETATM   70  NH2 0Q4 A 125     -12.976  19.635  41.591  1.00 35.86    -0.235 N 
HETATM   71 HH11 0Q4 A 125     -12.697  19.842  38.402  1.00 15.00     0.174 HD
HETATM   72 HH12 0Q4 A 125     -11.852  20.717  39.631  1.00 15.00     0.174 HD
HETATM   73 HH21 0Q4 A 125     -13.449  19.116  42.301  1.00 15.00     0.174 HD
HETATM   74 HH22 0Q4 A 125     -12.278  20.308  41.841  1.00 15.00     0.174 HD
HETATM   75  HE  0Q4 A 125     -14.712  18.126  40.650  1.00 15.00     0.177 HD
ENDBRANCH  66  67
ENDBRANCH  65  66
ENDBRANCH  64  65
ENDBRANCH   5  64
ENDBRANCH   1   5
TORSDOF 29
ENDMDL
MODEL 14
REMARK VINA RESULT:      -5.3      3.659      9.063
REMARK  29 active torsions:
REMARK  status: ('A' for Active; 'I' for Inactive)
REMARK    1  A    between atoms: N_1  and  CA_2 
REMARK    2  A    between atoms: CA_2  and  C_4 
REMARK    3  A    between atoms: CA_2  and  CB_6 
REMARK       I    between atoms: C_4  and  N1_19 
REMARK    4  A    between atoms: CB_6  and  CG_9 
REMARK    5  A    between atoms: CG_9  and  CD_12 
REMARK    6  A    between atoms: CD_12  and  NE_15 
REMARK       I    between atoms: NE_15  and  CZ_16 
REMARK       I    between atoms: CZ_16  and  NH1_17 
REMARK    7  A    between atoms: N1_19  and  CA1_20 
REMARK    8  A    between atoms: CA1_20  and  C1_22 
REMARK    9  A    between atoms: CA1_20  and  CB1_24 
REMARK       I    between atoms: C1_22  and  N2_34 
REMARK   10  A    between atoms: N2_34  and  CA2_35 
REMARK   11  A    between atoms: CA2_35  and  C2_37 
REMARK   12  A    between atoms: CA2_35  and  CB2_39 
REMARK   13  A    between atoms: CB2_39  and  CG3_42 
REMARK   14  A    between atoms: N3_52  and  CA3_53 
REMARK   15  A    between atoms: CA3_53  and  C3_55 
REMARK   16  A    between atoms: CA3_53  and  CB3_57 
REMARK       I    between atoms: C3_55  and  N4_71 
REMARK   17  A    between atoms: CB3_57  and  CG4_60 
REMARK   18  A    between atoms: N4_71  and  CA4_72 
REMARK   19  A    between atoms: CA4_72  and  C4_74 
REMARK   20  A    between atoms: CA4_72  and  CB4_76 
REMARK       I    between atoms: C4_74  and  N5_85 
REMARK   21  A    between atoms: CB4_76  and  CG5_79 
REMARK   22  A    between atoms: CG5_79  and  CD3_82 
REMARK   23  A    between atoms: N5_85  and  CA5_86 
REMARK   24  A    between atoms: CA5_86  and  C5_88 
REMARK       I    between atoms: C5_88  and  N6_94 
REMARK   25  A    between atoms: N6_94  and  CA6_95 
REMARK   26  A    between atoms: CA6_95  and  C6_97 
REMARK   27  A    between atoms: CA6_95  and  CB6_99 
REMARK       I    between atoms: C6_97  and  N7_112 
REMARK   28  A    between atoms: CB6_99  and  CG6_102 
REMARK   29  A    between atoms: CG6_102  and  CD4_105 
ROOT
HETATM    1  N   0Q4 A 125      -2.043  15.225  29.197  1.00 21.27    -0.067 N 
HETATM    2  H   0Q4 A 125      -2.432  14.500  29.816  1.00 15.00     0.275 HD
HETATM    3  H2  0Q4 A 125      -0.993  15.176  29.178  1.00 15.00     0.275 HD
HETATM    4  HN3 0Q4 A 125      -2.344  16.150  29.541  1.00 15.00     0.275 HD
ENDROOT
BRANCH   1   5
HETATM    5  CA  0Q4 A 125      -2.482  15.027  27.781  1.00 21.76     0.274 C 
BRANCH   5   6
HETATM    6  C   0Q4 A 125      -3.433  16.199  27.377  1.00 21.89     0.249 C 
HETATM    7  O   0Q4 A 125      -3.019  17.124  26.653  1.00 22.48    -0.271 OA
HETATM    8  N1  0Q4 A 125      -4.709  16.113  27.788  1.00 19.10    -0.346 N 
HETATM    9  H1  0Q4 A 125      -5.010  15.383  28.370  1.00 15.00     0.163 HD
BRANCH   8  10
HETATM   10  CA1 0Q4 A 125      -5.731  17.102  27.442  1.00 18.90     0.180 C 
BRANCH  10  11
HETATM   11  C1  0Q4 A 125      -6.597  17.496  28.667  1.00 17.14     0.241 C 
HETATM   12  O1  0Q4 A 125      -7.208  18.556  28.729  1.00 18.87    -0.271 OA
HETATM   13  N2  0Q4 A 125      -6.550  16.675  29.700  1.00 17.78    -0.350 N 
HETATM   14  HN2 0Q4 A 125      -5.982  15.873  29.662  1.00 15.00     0.163 HD
BRANCH  13  15
HETATM   15  CA2 0Q4 A 125      -7.368  16.903  30.876  1.00 17.96     0.123 C 
BRANCH  15  16
HETATM   16  C2  0Q4 A 125      -6.636  16.973  32.210  1.00 17.56     0.081 C 
HETATM   17  N3  0Q4 A 125      -5.412  16.474  32.219  1.00 16.64    -0.387 N 
HETATM   18  H3  0Q4 A 125      -5.067  16.092  31.390  1.00 15.00     0.159 HD
BRANCH  17  19
HETATM   19  CA3 0Q4 A 125      -4.538  16.489  33.397  1.00 16.89     0.177 C 
BRANCH  19  20
HETATM   20  C3  0Q4 A 125      -3.089  16.460  32.837  1.00 15.06     0.241 C 
HETATM   21  O2  0Q4 A 125      -2.817  15.765  31.855  1.00 12.51    -0.271 OA
HETATM   22  N4  0Q4 A 125      -2.213  17.297  33.395  1.00 14.54    -0.346 N 
HETATM   23  H4  0Q4 A 125      -2.474  17.827  34.179  1.00 15.00     0.163 HD
BRANCH  22  24
HETATM   24  CA4 0Q4 A 125      -0.833  17.440  32.924  1.00 15.81     0.177 C 
BRANCH  24  25
HETATM   25  C4  0Q4 A 125       0.253  17.286  33.993  1.00 17.52     0.241 C 
HETATM   26  O3  0Q4 A 125       1.301  17.935  33.958  1.00 17.50    -0.271 OA
HETATM   27  N5  0Q4 A 125       0.064  16.304  34.858  1.00 19.61    -0.346 N 
HETATM   28  H5  0Q4 A 125      -0.729  15.728  34.792  1.00 15.00     0.163 HD
BRANCH  27  29
HETATM   29  CA5 0Q4 A 125       1.014  16.057  35.922  1.00 21.82     0.172 C 
HETATM   30  CB5 0Q4 A 125       0.514  16.744  37.179  1.00 22.24     0.042 C 
BRANCH  29  31
HETATM   31  C5  0Q4 A 125       1.334  14.576  36.241  1.00 24.09     0.240 C 
HETATM   32  O4  0Q4 A 125       2.483  14.193  36.475  1.00 20.88    -0.271 OA
HETATM   33  N6  0Q4 A 125       0.289  13.758  36.185  1.00 27.66    -0.346 N 
HETATM   34  H6  0Q4 A 125      -0.576  14.138  35.955  1.00 15.00     0.163 HD
BRANCH  33  35
HETATM   35  CA6 0Q4 A 125       0.372  12.315  36.367  1.00 31.09     0.176 C 
BRANCH  35  36
HETATM   36  C6  0Q4 A 125       0.606  11.721  34.967  1.00 33.78     0.238 C 
HETATM   37  O5  0Q4 A 125      -0.376  11.419  34.228  1.00 34.60    -0.271 OA
HETATM   38  N7  0Q4 A 125       1.803  11.533  34.636  1.00 36.53    -0.368 N 
HETATM   39  H72 0Q4 A 125       2.594  11.777  35.232  1.00  0.00     0.159 HD
HETATM   40  H71 0Q4 A 125       1.958  11.139  33.708  1.00  0.00     0.159 HD
ENDBRANCH  35  36
BRANCH  35  41
HETATM   41  CB6 0Q4 A 125      -0.976  11.805  36.940  1.00 32.55     0.035 C 
BRANCH  41  42
HETATM   42  CG6 0Q4 A 125      -2.191  12.798  36.932  1.00 32.73     0.002 C 
BRANCH  42  43
HETATM   43  CD4 0Q4 A 125      -3.271  12.509  35.815  1.00 31.59    -0.004 C 
HETATM   44  CE  0Q4 A 125      -3.646  11.041  35.790  1.00 23.29     0.005 C 
ENDBRANCH  42  43
ENDBRANCH  41  42
ENDBRANCH  35  41
ENDBRANCH  33  35
ENDBRANCH  29  31
ENDBRANCH  27  29
ENDBRANCH  24  25
BRANCH  24  45
HETATM   45  CB4 0Q4 A 125      -0.675  18.813  32.213  1.00 17.07     0.045 C 
BRANCH  45  46
HETATM   46  CG5 0Q4 A 125       0.036  18.826  30.874  1.00 18.50     0.116 C 
BRANCH  46  47
HETATM   47  CD3 0Q4 A 125      -0.844  18.326  29.718  1.00 26.68     0.172 C 
HETATM   48  OE1 0Q4 A 125      -0.293  17.803  28.732  1.00 29.71    -0.648 OA
HETATM   49  OE2 0Q4 A 125      -2.096  18.445  29.781  1.00 31.35    -0.648 OA
ENDBRANCH  46  47
ENDBRANCH  45  46
ENDBRANCH  24  45
ENDBRANCH  22  24
ENDBRANCH  19  20
BRANCH  19  50
HETATM   50  CB3 0Q4 A 125      -4.955  15.284  34.293  1.00 18.22     0.073 C 
BRANCH  50  51
HETATM   51  CG4 0Q4 A 125      -5.691  15.638  35.525  1.00 21.59    -0.056 A 
HETATM   52  CD1 0Q4 A 125      -7.079  15.616  35.552  1.00 22.99     0.007 A 
HETATM   53  CE1 0Q4 A 125      -7.790  15.909  36.738  1.00 24.00     0.001 A 
HETATM   54  CZ1 0Q4 A 125      -7.100  16.237  37.910  1.00 25.64     0.000 A 
HETATM   55  CE2 0Q4 A 125      -5.707  16.273  37.893  1.00 27.27     0.001 A 
HETATM   56  CD2 0Q4 A 125      -5.004  15.970  36.688  1.00 24.65     0.007 A 
ENDBRANCH  50  51
ENDBRANCH  19  50
ENDBRANCH  17  19
ENDBRANCH  15  16
BRANCH  15  57
HETATM   57  CB2 0Q4 A 125      -8.534  15.885  30.904  1.00 19.32     0.034 C 
BRANCH  57  58
HETATM   58  CG3 0Q4 A 125      -9.071  15.530  32.319  1.00 21.12    -0.020 C 
HETATM   59  CD1 0Q4 A 125     -10.554  15.855  32.496  1.00 21.22     0.009 C 
HETATM   60  CD2 0Q4 A 125      -8.828  14.061  32.613  1.00 17.47     0.009 C 
ENDBRANCH  57  58
ENDBRANCH  15  57
ENDBRANCH  13  15
ENDBRANCH  10  11
BRANCH  10  61
HETATM   61  CB1 0Q4 A 125      -6.584  16.599  26.167  1.00 19.28     0.009 C 
HETATM   62  CG1 0Q4 A 125      -7.623  15.544  26.558  1.00 20.08     0.012 C 
HETATM   63  CG2 0Q4 A 125      -7.335  17.777  25.514  1.00 19.54     0.012 C 
ENDBRANCH  10  61
ENDBRANCH   8  10
ENDBRANCH   5   6
BRANCH   5  64
HETATM   64  CB  0Q4 A 125      -3.142  13.649  27.650  1.00 21.80     0.044 C 
BRANCH  64  65
HETATM   65  CG  0Q4 A 125      -2.612  12.715  26.508  1.00 26.69     0.023 C 
BRANCH  65  66
HETATM   66  CD  0Q4 A 125      -1.183  12.106  26.725  1.00 29.76     0.138 C 
BRANCH  66  67
HETATM   67  NE  0Q4 A 125      -1.169  10.707  27.172  1.00 32.26    -0.227 N 
HETATM   68  CZ  0Q4 A 125      -1.045   9.651  26.364  1.00 34.72     0.665 C 
HETATM   69  NH1 0Q4 A 125      -0.905   9.843  25.063  1.00 35.07    -0.235 N 
HETATM   70  NH2 0Q4 A 125      -1.184   8.404  26.837  1.00 35.86    -0.235 N 
HETATM   71 HH11 0Q4 A 125      -0.888  10.769  24.691  1.00 15.00     0.174 HD
HETATM   72 HH12 0Q4 A 125      -0.811   9.058  24.448  1.00 15.00     0.174 HD
HETATM   73 HH21 0Q4 A 125      -1.380   8.247  27.804  1.00 15.00     0.174 HD
HETATM   74 HH22 0Q4 A 125      -1.088   7.627  26.211  1.00 15.00     0.174 HD
HETATM   75  HE  0Q4 A 125      -1.260  10.522  28.134  1.00 15.00     0.177 HD
ENDBRANCH  66  67
ENDBRANCH  65  66
ENDBRANCH  64  65
ENDBRANCH   5  64
ENDBRANCH   1   5
TORSDOF 29
ENDMDL
MODEL 15
REMARK VINA RESULT:      -5.3      2.974      8.377
REMARK  29 active torsions:
REMARK  status: ('A' for Active; 'I' for Inactive)
REMARK    1  A    between atoms: N_1  and  CA_2 
REMARK    2  A    between atoms: CA_2  and  C_4 
REMARK    3  A    between atoms: CA_2  and  CB_6 
REMARK       I    between atoms: C_4  and  N1_19 
REMARK    4  A    between atoms: CB_6  and  CG_9 
REMARK    5  A    between atoms: CG_9  and  CD_12 
REMARK    6  A    between atoms: CD_12  and  NE_15 
REMARK       I    between atoms: NE_15  and  CZ_16 
REMARK       I    between atoms: CZ_16  and  NH1_17 
REMARK    7  A    between atoms: N1_19  and  CA1_20 
REMARK    8  A    between atoms: CA1_20  and  C1_22 
REMARK    9  A    between atoms: CA1_20  and  CB1_24 
REMARK       I    between atoms: C1_22  and  N2_34 
REMARK   10  A    between atoms: N2_34  and  CA2_35 
REMARK   11  A    between atoms: CA2_35  and  C2_37 
REMARK   12  A    between atoms: CA2_35  and  CB2_39 
REMARK   13  A    between atoms: CB2_39  and  CG3_42 
REMARK   14  A    between atoms: N3_52  and  CA3_53 
REMARK   15  A    between atoms: CA3_53  and  C3_55 
REMARK   16  A    between atoms: CA3_53  and  CB3_57 
REMARK       I    between atoms: C3_55  and  N4_71 
REMARK   17  A    between atoms: CB3_57  and  CG4_60 
REMARK   18  A    between atoms: N4_71  and  CA4_72 
REMARK   19  A    between atoms: CA4_72  and  C4_74 
REMARK   20  A    between atoms: CA4_72  and  CB4_76 
REMARK       I    between atoms: C4_74  and  N5_85 
REMARK   21  A    between atoms: CB4_76  and  CG5_79 
REMARK   22  A    between atoms: CG5_79  and  CD3_82 
REMARK   23  A    between atoms: N5_85  and  CA5_86 
REMARK   24  A    between atoms: CA5_86  and  C5_88 
REMARK       I    between atoms: C5_88  and  N6_94 
REMARK   25  A    between atoms: N6_94  and  CA6_95 
REMARK   26  A    between atoms: CA6_95  and  C6_97 
REMARK   27  A    between atoms: CA6_95  and  CB6_99 
REMARK       I    between atoms: C6_97  and  N7_112 
REMARK   28  A    between atoms: CB6_99  and  CG6_102 
REMARK   29  A    between atoms: CG6_102  and  CD4_105 
ROOT
HETATM    1  N   0Q4 A 125      -2.905  12.806  35.706  1.00 21.27    -0.067 N 
HETATM    2  H   0Q4 A 125      -2.648  13.569  35.065  1.00 15.00     0.275 HD
HETATM    3  H2  0Q4 A 125      -2.248  11.992  35.601  1.00 15.00     0.275 HD
HETATM    4  HN3 0Q4 A 125      -3.870  12.507  35.496  1.00 15.00     0.275 HD
ENDROOT
BRANCH   1   5
HETATM    5  CA  0Q4 A 125      -2.792  13.233  37.135  1.00 21.76     0.274 C 
BRANCH   5   6
HETATM    6  C   0Q4 A 125      -2.342  14.728  37.183  1.00 21.89     0.249 C 
HETATM    7  O   0Q4 A 125      -2.965  15.550  37.881  1.00 22.48    -0.271 OA
HETATM    8  N1  0Q4 A 125      -1.231  15.049  36.501  1.00 19.10    -0.346 N 
HETATM    9  H1  0Q4 A 125      -0.764  14.389  35.945  1.00 15.00     0.163 HD
BRANCH   8  10
HETATM   10  CA1 0Q4 A 125      -0.653  16.395  36.494  1.00 18.90     0.180 C 
BRANCH  10  11
HETATM   11  C1  0Q4 A 125      -0.758  17.067  35.101  1.00 17.14     0.241 C 
HETATM   12  O1  0Q4 A 125      -1.749  17.690  34.742  1.00 18.87    -0.271 OA
HETATM   13  N2  0Q4 A 125       0.240  16.832  34.267  1.00 17.78    -0.350 N 
HETATM   14  HN2 0Q4 A 125       0.986  16.255  34.547  1.00 15.00     0.163 HD
BRANCH  13  15
HETATM   15  CA2 0Q4 A 125       0.287  17.460  32.960  1.00 17.96     0.123 C 
BRANCH  15  16
HETATM   16  C2  0Q4 A 125      -0.578  16.833  31.874  1.00 17.56     0.081 C 
HETATM   17  N3  0Q4 A 125      -1.779  17.361  31.722  1.00 16.64    -0.387 N 
HETATM   18  H3  0Q4 A 125      -2.034  18.098  32.309  1.00 15.00     0.159 HD
BRANCH  17  19
HETATM   19  CA3 0Q4 A 125      -2.736  16.919  30.701  1.00 16.89     0.177 C 
BRANCH  19  20
HETATM   20  C3  0Q4 A 125      -3.959  16.375  31.491  1.00 15.06     0.241 C 
HETATM   21  O2  0Q4 A 125      -4.662  15.483  31.009  1.00 12.51    -0.271 OA
HETATM   22  N4  0Q4 A 125      -4.126  16.835  32.731  1.00 14.54    -0.346 N 
HETATM   23  H4  0Q4 A 125      -3.545  17.550  33.070  1.00 15.00     0.163 HD
BRANCH  22  24
HETATM   24  CA4 0Q4 A 125      -5.186  16.359  33.624  1.00 15.81     0.177 C 
BRANCH  24  25
HETATM   25  C4  0Q4 A 125      -6.619  16.570  33.127  1.00 17.52     0.241 C 
HETATM   26  O3  0Q4 A 125      -7.093  17.695  32.956  1.00 17.50    -0.271 OA
HETATM   27  N5  0Q4 A 125      -7.359  15.476  33.047  1.00 19.61    -0.346 N 
HETATM   28  H5  0Q4 A 125      -6.986  14.603  33.299  1.00 15.00     0.163 HD
BRANCH  27  29
HETATM   29  CA5 0Q4 A 125      -8.729  15.538  32.585  1.00 21.82     0.172 C 
HETATM   30  CB5 0Q4 A 125      -8.725  15.497  31.068  1.00 22.24     0.042 C 
BRANCH  29  31
HETATM   31  C5  0Q4 A 125      -9.697  14.455  33.123  1.00 24.09     0.240 C 
HETATM   32  O4  0Q4 A 125      -9.405  13.257  33.112  1.00 20.88    -0.271 OA
HETATM   33  N6  0Q4 A 125     -10.872  14.917  33.537  1.00 27.66    -0.346 N 
HETATM   34  H6  0Q4 A 125     -11.033  15.874  33.474  1.00 15.00     0.163 HD
BRANCH  33  35
HETATM   35  CA6 0Q4 A 125     -11.962  14.071  34.003  1.00 31.09     0.176 C 
BRANCH  35  36
HETATM   36  C6  0Q4 A 125     -13.187  14.447  33.152  1.00 33.78     0.238 C 
HETATM   37  O5  0Q4 A 125     -13.154  15.461  32.396  1.00 34.60    -0.271 OA
HETATM   38  N7  0Q4 A 125     -14.201  13.717  33.284  1.00 36.53    -0.368 N 
HETATM   39  H72 0Q4 A 125     -14.228  12.900  33.893  1.00  0.00     0.159 HD
HETATM   40  H71 0Q4 A 125     -15.013  13.967  32.720  1.00  0.00     0.159 HD
ENDBRANCH  35  36
BRANCH  35  41
HETATM   41  CB6 0Q4 A 125     -12.236  14.388  35.496  1.00 32.55     0.035 C 
BRANCH  41  42
HETATM   42  CG6 0Q4 A 125     -12.614  13.190  36.437  1.00 32.73     0.002 C 
BRANCH  42  43
HETATM   43  CD4 0Q4 A 125     -13.751  13.509  37.485  1.00 31.59    -0.004 C 
HETATM   44  CE  0Q4 A 125     -14.841  14.358  36.863  1.00 23.29     0.005 C 
ENDBRANCH  42  43
ENDBRANCH  41  42
ENDBRANCH  35  41
ENDBRANCH  33  35
ENDBRANCH  29  31
ENDBRANCH  27  29
ENDBRANCH  24  25
BRANCH  24  45
HETATM   45  CB4 0Q4 A 125      -5.015  17.023  35.020  1.00 17.07     0.045 C 
BRANCH  45  46
HETATM   46  CG5 0Q4 A 125      -6.267  17.541  35.702  1.00 18.50     0.116 C 
BRANCH  46  47
HETATM   47  CD3 0Q4 A 125      -6.874  16.535  36.691  1.00 26.68     0.172 C 
HETATM   48  OE1 0Q4 A 125      -6.579  16.630  37.897  1.00 29.71    -0.648 OA
HETATM   49  OE2 0Q4 A 125      -7.658  15.639  36.279  1.00 31.35    -0.648 OA
ENDBRANCH  46  47
ENDBRANCH  45  46
ENDBRANCH  24  45
ENDBRANCH  22  24
ENDBRANCH  19  20
BRANCH  19  50
HETATM   50  CB3 0Q4 A 125      -1.995  15.896  29.789  1.00 18.22     0.073 C 
BRANCH  50  51
HETATM   51  CG4 0Q4 A 125      -2.458  15.850  28.387  1.00 21.59    -0.056 A 
HETATM   52  CD1 0Q4 A 125      -3.228  16.878  27.861  1.00 22.99     0.007 A 
HETATM   53  CE1 0Q4 A 125      -3.637  16.864  26.507  1.00 24.00     0.001 A 
HETATM   54  CZ1 0Q4 A 125      -3.276  15.800  25.673  1.00 25.64     0.000 A 
HETATM   55  CE2 0Q4 A 125      -2.512  14.756  26.193  1.00 27.27     0.001 A 
HETATM   56  CD2 0Q4 A 125      -2.104  14.788  27.560  1.00 24.65     0.007 A 
ENDBRANCH  50  51
ENDBRANCH  19  50
ENDBRANCH  17  19
ENDBRANCH  15  16
BRANCH  15  57
HETATM   57  CB2 0Q4 A 125       1.760  17.620  32.513  1.00 19.32     0.034 C 
BRANCH  57  58
HETATM   58  CG3 0Q4 A 125       2.278  19.085  32.448  1.00 21.12    -0.020 C 
HETATM   59  CD1 0Q4 A 125       1.162  20.105  32.226  1.00 21.22     0.009 C 
HETATM   60  CD2 0Q4 A 125       3.039  19.423  33.716  1.00 17.47     0.009 C 
ENDBRANCH  57  58
ENDBRANCH  15  57
ENDBRANCH  13  15
ENDBRANCH  10  11
BRANCH  10  61
HETATM   61  CB1 0Q4 A 125       0.843  16.360  37.099  1.00 19.28     0.009 C 
HETATM   62  CG1 0Q4 A 125       1.405  17.769  37.308  1.00 20.08     0.012 C 
HETATM   63  CG2 0Q4 A 125       0.865  15.639  38.462  1.00 19.54     0.012 C 
ENDBRANCH  10  61
ENDBRANCH   8  10
ENDBRANCH   5   6
BRANCH   5  64
HETATM   64  CB  0Q4 A 125      -1.821  12.294  37.862  1.00 21.80     0.044 C 
BRANCH  64  65
HETATM   65  CG  0Q4 A 125      -0.343  12.261  37.342  1.00 26.69     0.023 C 
BRANCH  65  66
HETATM   66  CD  0Q4 A 125       0.114  10.927  36.652  1.00 29.76     0.138 C 
BRANCH  66  67
HETATM   67  NE  0Q4 A 125       1.568  10.720  36.614  1.00 32.26    -0.227 N 
HETATM   68  CZ  0Q4 A 125       2.250   9.955  37.470  1.00 34.72     0.665 C 
HETATM   69  NH1 0Q4 A 125       1.599   9.311  38.425  1.00 35.07    -0.235 N 
HETATM   70  NH2 0Q4 A 125       3.591   9.931  37.452  1.00 35.86    -0.235 N 
HETATM   71 HH11 0Q4 A 125       0.607   9.392  38.500  1.00 15.00     0.174 HD
HETATM   72 HH12 0Q4 A 125       2.101   8.735  39.072  1.00 15.00     0.174 HD
HETATM   73 HH21 0Q4 A 125       4.099  10.483  36.794  1.00 15.00     0.174 HD
HETATM   74 HH22 0Q4 A 125       4.081   9.351  38.106  1.00 15.00     0.174 HD
HETATM   75  HE  0Q4 A 125       2.087  11.172  35.912  1.00 15.00     0.177 HD
ENDBRANCH  66  67
ENDBRANCH  65  66
ENDBRANCH  64  65
ENDBRANCH   5  64
ENDBRANCH   1   5
TORSDOF 29
ENDMDL
MODEL 16
REMARK VINA RESULT:      -5.3      2.073      3.020
REMARK  29 active torsions:
REMARK  status: ('A' for Active; 'I' for Inactive)
REMARK    1  A    between atoms: N_1  and  CA_2 
REMARK    2  A    between atoms: CA_2  and  C_4 
REMARK    3  A    between atoms: CA_2  and  CB_6 
REMARK       I    between atoms: C_4  and  N1_19 
REMARK    4  A    between atoms: CB_6  and  CG_9 
REMARK    5  A    between atoms: CG_9  and  CD_12 
REMARK    6  A    between atoms: CD_12  and  NE_15 
REMARK       I    between atoms: NE_15  and  CZ_16 
REMARK       I    between atoms: CZ_16  and  NH1_17 
REMARK    7  A    between atoms: N1_19  and  CA1_20 
REMARK    8  A    between atoms: CA1_20  and  C1_22 
REMARK    9  A    between atoms: CA1_20  and  CB1_24 
REMARK       I    between atoms: C1_22  and  N2_34 
REMARK   10  A    between atoms: N2_34  and  CA2_35 
REMARK   11  A    between atoms: CA2_35  and  C2_37 
REMARK   12  A    between atoms: CA2_35  and  CB2_39 
REMARK   13  A    between atoms: CB2_39  and  CG3_42 
REMARK   14  A    between atoms: N3_52  and  CA3_53 
REMARK   15  A    between atoms: CA3_53  and  C3_55 
REMARK   16  A    between atoms: CA3_53  and  CB3_57 
REMARK       I    between atoms: C3_55  and  N4_71 
REMARK   17  A    between atoms: CB3_57  and  CG4_60 
REMARK   18  A    between atoms: N4_71  and  CA4_72 
REMARK   19  A    between atoms: CA4_72  and  C4_74 
REMARK   20  A    between atoms: CA4_72  and  CB4_76 
REMARK       I    between atoms: C4_74  and  N5_85 
REMARK   21  A    between atoms: CB4_76  and  CG5_79 
REMARK   22  A    between atoms: CG5_79  and  CD3_82 
REMARK   23  A    between atoms: N5_85  and  CA5_86 
REMARK   24  A    between atoms: CA5_86  and  C5_88 
REMARK       I    between atoms: C5_88  and  N6_94 
REMARK   25  A    between atoms: N6_94  and  CA6_95 
REMARK   26  A    between atoms: CA6_95  and  C6_97 
REMARK   27  A    between atoms: CA6_95  and  CB6_99 
REMARK       I    between atoms: C6_97  and  N7_112 
REMARK   28  A    between atoms: CB6_99  and  CG6_102 
REMARK   29  A    between atoms: CG6_102  and  CD4_105 
ROOT
HETATM    1  N   0Q4 A 125      -7.061  16.679  26.638  1.00 21.27    -0.067 N 
HETATM    2  H   0Q4 A 125      -6.403  17.377  26.266  1.00 15.00     0.275 HD
HETATM    3  H2  0Q4 A 125      -7.785  16.427  25.919  1.00 15.00     0.275 HD
HETATM    4  HN3 0Q4 A 125      -7.521  17.071  27.475  1.00 15.00     0.275 HD
ENDROOT
BRANCH   1   5
HETATM    5  CA  0Q4 A 125      -6.366  15.399  26.976  1.00 21.76     0.274 C 
BRANCH   5   6
HETATM    6  C   0Q4 A 125      -4.869  15.706  27.300  1.00 21.89     0.249 C 
HETATM    7  O   0Q4 A 125      -3.972  15.369  26.504  1.00 22.48    -0.271 OA
HETATM    8  N1  0Q4 A 125      -4.621  16.400  28.423  1.00 19.10    -0.346 N 
HETATM    9  H1  0Q4 A 125      -5.342  16.642  29.043  1.00 15.00     0.163 HD
BRANCH   8  10
HETATM   10  CA1 0Q4 A 125      -3.277  16.811  28.832  1.00 18.90     0.180 C 
BRANCH  10  11
HETATM   11  C1  0Q4 A 125      -2.837  16.133  30.155  1.00 17.14     0.241 C 
HETATM   12  O1  0Q4 A 125      -2.186  15.096  30.179  1.00 18.87    -0.271 OA
HETATM   13  N2  0Q4 A 125      -3.305  16.671  31.267  1.00 17.78    -0.350 N 
HETATM   14  HN2 0Q4 A 125      -3.900  17.452  31.219  1.00 15.00     0.163 HD
BRANCH  13  15
HETATM   15  CA2 0Q4 A 125      -2.910  16.165  32.568  1.00 17.96     0.123 C 
BRANCH  15  16
HETATM   16  C2  0Q4 A 125      -3.984  16.154  33.647  1.00 17.56     0.081 C 
HETATM   17  N3  0Q4 A 125      -4.068  15.046  34.361  1.00 16.64    -0.387 N 
HETATM   18  H3  0Q4 A 125      -3.456  14.316  34.149  1.00 15.00     0.159 HD
BRANCH  17  19
HETATM   19  CA3 0Q4 A 125      -5.012  14.865  35.470  1.00 16.89     0.177 C 
BRANCH  19  20
HETATM   20  C3  0Q4 A 125      -6.350  15.485  34.980  1.00 15.06     0.241 C 
HETATM   21  O2  0Q4 A 125      -6.685  16.612  35.352  1.00 12.51    -0.271 OA
HETATM   22  N4  0Q4 A 125      -7.034  14.792  34.068  1.00 14.54    -0.346 N 
HETATM   23  H4  0Q4 A 125      -6.731  13.895  33.807  1.00 15.00     0.163 HD
BRANCH  22  24
HETATM   24  CA4 0Q4 A 125      -8.271  15.282  33.455  1.00 15.81     0.177 C 
BRANCH  24  25
HETATM   25  C4  0Q4 A 125      -9.473  14.336  33.535  1.00 17.52     0.241 C 
HETATM   26  O3  0Q4 A 125      -9.522  13.285  32.893  1.00 17.50    -0.271 OA
HETATM   27  N5  0Q4 A 125     -10.514  14.797  34.208  1.00 19.61    -0.346 N 
HETATM   28  H5  0Q4 A 125     -10.488  15.691  34.616  1.00 15.00     0.163 HD
BRANCH  27  29
HETATM   29  CA5 0Q4 A 125     -11.711  13.999  34.364  1.00 21.82     0.172 C 
HETATM   30  CB5 0Q4 A 125     -12.214  14.162  35.786  1.00 22.24     0.042 C 
BRANCH  29  31
HETATM   31  C5  0Q4 A 125     -12.871  14.280  33.376  1.00 24.09     0.240 C 
HETATM   32  O4  0Q4 A 125     -14.025  14.475  33.764  1.00 20.88    -0.271 OA
HETATM   33  N6  0Q4 A 125     -12.529  14.235  32.093  1.00 27.66    -0.346 N 
HETATM   34  H6  0Q4 A 125     -11.602  14.036  31.874  1.00 15.00     0.163 HD
BRANCH  33  35
HETATM   35  CA6 0Q4 A 125     -13.471  14.386  30.992  1.00 31.09     0.176 C 
BRANCH  35  36
HETATM   36  C6  0Q4 A 125     -13.566  13.006  30.320  1.00 33.78     0.238 C 
HETATM   37  O5  0Q4 A 125     -12.518  12.406  29.939  1.00 34.60    -0.271 OA
HETATM   38  N7  0Q4 A 125     -14.723  12.548  30.150  1.00 36.53    -0.368 N 
HETATM   39  H72 0Q4 A 125     -15.567  13.030  30.457  1.00  0.00     0.159 HD
HETATM   40  H71 0Q4 A 125     -14.785  11.633  29.704  1.00  0.00     0.159 HD
ENDBRANCH  35  36
BRANCH  35  41
HETATM   41  CB6 0Q4 A 125     -12.907  15.426  29.991  1.00 32.55     0.035 C 
BRANCH  41  42
HETATM   42  CG6 0Q4 A 125     -13.852  16.599  29.549  1.00 32.73     0.002 C 
BRANCH  42  43
HETATM   43  CD4 0Q4 A 125     -15.357  16.180  29.321  1.00 31.59    -0.004 C 
HETATM   44  CE  0Q4 A 125     -15.525  15.451  28.004  1.00 23.29     0.005 C 
ENDBRANCH  42  43
ENDBRANCH  41  42
ENDBRANCH  35  41
ENDBRANCH  33  35
ENDBRANCH  29  31
ENDBRANCH  27  29
ENDBRANCH  24  25
BRANCH  24  45
HETATM   45  CB4 0Q4 A 125      -7.994  15.648  31.969  1.00 17.07     0.045 C 
BRANCH  45  46
HETATM   46  CG5 0Q4 A 125      -7.114  16.853  31.701  1.00 18.50     0.116 C 
BRANCH  46  47
HETATM   47  CD3 0Q4 A 125      -7.258  17.400  30.273  1.00 26.68     0.172 C 
HETATM   48  OE1 0Q4 A 125      -8.132  16.912  29.532  1.00 29.71    -0.648 OA
HETATM   49  OE2 0Q4 A 125      -6.504  18.326  29.872  1.00 31.35    -0.648 OA
ENDBRANCH  46  47
ENDBRANCH  45  46
ENDBRANCH  24  45
ENDBRANCH  22  24
ENDBRANCH  19  20
BRANCH  19  50
HETATM   50  CB3 0Q4 A 125      -4.370  15.520  36.730  1.00 18.22     0.073 C 
BRANCH  50  51
HETATM   51  CG4 0Q4 A 125      -2.991  15.084  37.035  1.00 21.59    -0.056 A 
HETATM   52  CD1 0Q4 A 125      -2.724  13.766  37.376  1.00 22.99     0.007 A 
HETATM   53  CE1 0Q4 A 125      -1.402  13.330  37.625  1.00 24.00     0.001 A 
HETATM   54  CZ1 0Q4 A 125      -0.335  14.232  37.538  1.00 25.64     0.000 A 
HETATM   55  CE2 0Q4 A 125      -0.592  15.561  37.206  1.00 27.27     0.001 A 
HETATM   56  CD2 0Q4 A 125      -1.932  15.983  36.954  1.00 24.65     0.007 A 
ENDBRANCH  50  51
ENDBRANCH  19  50
ENDBRANCH  17  19
ENDBRANCH  15  16
BRANCH  15  57
HETATM   57  CB2 0Q4 A 125      -1.620  16.883  33.035  1.00 19.32     0.034 C 
BRANCH  57  58
HETATM   58  CG3 0Q4 A 125      -0.333  16.010  33.021  1.00 21.12    -0.020 C 
HETATM   59  CD1 0Q4 A 125       0.792  16.589  33.877  1.00 21.22     0.009 C 
HETATM   60  CD2 0Q4 A 125      -0.657  14.602  33.482  1.00 17.47     0.009 C 
ENDBRANCH  57  58
ENDBRANCH  15  57
ENDBRANCH  13  15
ENDBRANCH  10  11
BRANCH  10  61
HETATM   61  CB1 0Q4 A 125      -3.171  18.422  28.851  1.00 19.28     0.009 C 
HETATM   62  CG1 0Q4 A 125      -1.777  18.895  29.270  1.00 20.08     0.012 C 
HETATM   63  CG2 0Q4 A 125      -3.463  19.005  27.453  1.00 19.54     0.012 C 
ENDBRANCH  10  61
ENDBRANCH   8  10
ENDBRANCH   5   6
BRANCH   5  64
HETATM   64  CB  0Q4 A 125      -6.536  14.415  25.812  1.00 21.80     0.044 C 
BRANCH  64  65
HETATM   65  CG  0Q4 A 125      -7.197  13.033  26.144  1.00 26.69     0.023 C 
BRANCH  65  66
HETATM   66  CD  0Q4 A 125      -6.232  11.795  26.163  1.00 29.76     0.138 C 
BRANCH  66  67
HETATM   67  NE  0Q4 A 125      -4.805  12.126  26.280  1.00 32.26    -0.227 N 
HETATM   68  CZ  0Q4 A 125      -4.137  12.213  27.433  1.00 34.72     0.665 C 
HETATM   69  NH1 0Q4 A 125      -4.770  11.973  28.570  1.00 35.07    -0.235 N 
HETATM   70  NH2 0Q4 A 125      -2.872  12.658  27.462  1.00 35.86    -0.235 N 
HETATM   71 HH11 0Q4 A 125      -5.737  11.725  28.563  1.00 15.00     0.174 HD
HETATM   72 HH12 0Q4 A 125      -4.278  12.035  29.440  1.00 15.00     0.174 HD
HETATM   73 HH21 0Q4 A 125      -2.411  12.929  26.620  1.00 15.00     0.174 HD
HETATM   74 HH22 0Q4 A 125      -2.392  12.716  28.340  1.00 15.00     0.174 HD
HETATM   75  HE  0Q4 A 125      -4.296  12.301  25.457  1.00 15.00     0.177 HD
ENDBRANCH  66  67
ENDBRANCH  65  66
ENDBRANCH  64  65
ENDBRANCH   5  64
ENDBRANCH   1   5
TORSDOF 29
ENDMDL
MODEL 17
REMARK VINA RESULT:      -5.2      3.970      9.857
REMARK  29 active torsions:
REMARK  status: ('A' for Active; 'I' for Inactive)
REMARK    1  A    between atoms: N_1  and  CA_2 
REMARK    2  A    between atoms: CA_2  and  C_4 
REMARK    3  A    between atoms: CA_2  and  CB_6 
REMARK       I    between atoms: C_4  and  N1_19 
REMARK    4  A    between atoms: CB_6  and  CG_9 
REMARK    5  A    between atoms: CG_9  and  CD_12 
REMARK    6  A    between atoms: CD_12  and  NE_15 
REMARK       I    between atoms: NE_15  and  CZ_16 
REMARK       I    between atoms: CZ_16  and  NH1_17 
REMARK    7  A    between atoms: N1_19  and  CA1_20 
REMARK    8  A    between atoms: CA1_20  and  C1_22 
REMARK    9  A    between atoms: CA1_20  and  CB1_24 
REMARK       I    between atoms: C1_22  and  N2_34 
REMARK   10  A    between atoms: N2_34  and  CA2_35 
REMARK   11  A    between atoms: CA2_35  and  C2_37 
REMARK   12  A    between atoms: CA2_35  and  CB2_39 
REMARK   13  A    between atoms: CB2_39  and  CG3_42 
REMARK   14  A    between atoms: N3_52  and  CA3_53 
REMARK   15  A    between atoms: CA3_53  and  C3_55 
REMARK   16  A    between atoms: CA3_53  and  CB3_57 
REMARK       I    between atoms: C3_55  and  N4_71 
REMARK   17  A    between atoms: CB3_57  and  CG4_60 
REMARK   18  A    between atoms: N4_71  and  CA4_72 
REMARK   19  A    between atoms: CA4_72  and  C4_74 
REMARK   20  A    between atoms: CA4_72  and  CB4_76 
REMARK       I    between atoms: C4_74  and  N5_85 
REMARK   21  A    between atoms: CB4_76  and  CG5_79 
REMARK   22  A    between atoms: CG5_79  and  CD3_82 
REMARK   23  A    between atoms: N5_85  and  CA5_86 
REMARK   24  A    between atoms: CA5_86  and  C5_88 
REMARK       I    between atoms: C5_88  and  N6_94 
REMARK   25  A    between atoms: N6_94  and  CA6_95 
REMARK   26  A    between atoms: CA6_95  and  C6_97 
REMARK   27  A    between atoms: CA6_95  and  CB6_99 
REMARK       I    between atoms: C6_97  and  N7_112 
REMARK   28  A    between atoms: CB6_99  and  CG6_102 
REMARK   29  A    between atoms: CG6_102  and  CD4_105 
ROOT
HETATM    1  N   0Q4 A 125      -1.667  18.709  33.135  1.00 21.27    -0.067 N 
HETATM    2  H   0Q4 A 125      -2.182  17.899  32.763  1.00 15.00     0.275 HD
HETATM    3  H2  0Q4 A 125      -1.565  18.640  34.179  1.00 15.00     0.275 HD
HETATM    4  HN3 0Q4 A 125      -2.180  19.570  32.890  1.00 15.00     0.275 HD
ENDROOT
BRANCH   1   5
HETATM    5  CA  0Q4 A 125      -0.273  18.762  32.596  1.00 21.76     0.274 C 
BRANCH   5   6
HETATM    6  C   0Q4 A 125      -0.324  19.212  31.101  1.00 21.89     0.249 C 
HETATM    7  O   0Q4 A 125       0.452  20.092  30.682  1.00 22.48    -0.271 OA
HETATM    8  N1  0Q4 A 125      -1.184  18.560  30.301  1.00 19.10    -0.346 N 
HETATM    9  H1  0Q4 A 125      -1.796  17.881  30.655  1.00 15.00     0.163 HD
BRANCH   8  10
HETATM   10  CA1 0Q4 A 125      -1.306  18.829  28.867  1.00 18.90     0.180 C 
BRANCH  10  11
HETATM   11  C1  0Q4 A 125      -2.735  19.292  28.482  1.00 17.14     0.241 C 
HETATM   12  O1  0Q4 A 125      -2.965  20.400  28.013  1.00 18.87    -0.271 OA
HETATM   13  N2  0Q4 A 125      -3.718  18.467  28.797  1.00 17.78    -0.350 N 
HETATM   14  HN2 0Q4 A 125      -3.517  17.620  29.255  1.00 15.00     0.163 HD
BRANCH  13  15
HETATM   15  CA2 0Q4 A 125      -5.090  18.761  28.428  1.00 17.96     0.123 C 
BRANCH  15  16
HETATM   16  C2  0Q4 A 125      -6.165  18.339  29.420  1.00 17.56     0.081 C 
HETATM   17  N3  0Q4 A 125      -6.131  17.074  29.799  1.00 16.64    -0.387 N 
HETATM   18  H3  0Q4 A 125      -5.438  16.500  29.420  1.00 15.00     0.159 HD
BRANCH  17  19
HETATM   19  CA3 0Q4 A 125      -7.058  16.495  30.779  1.00 16.89     0.177 C 
BRANCH  19  20
HETATM   20  C3  0Q4 A 125      -6.465  16.855  32.170  1.00 15.06     0.241 C 
HETATM   21  O2  0Q4 A 125      -6.867  17.850  32.777  1.00 12.51    -0.271 OA
HETATM   22  N4  0Q4 A 125      -5.608  15.982  32.701  1.00 14.54    -0.346 N 
HETATM   23  H4  0Q4 A 125      -5.312  15.206  32.177  1.00 15.00     0.163 HD
BRANCH  22  24
HETATM   24  CA4 0Q4 A 125      -5.027  16.144  34.036  1.00 15.81     0.177 C 
BRANCH  24  25
HETATM   25  C4  0Q4 A 125      -3.502  16.025  34.117  1.00 17.52     0.241 C 
HETATM   26  O3  0Q4 A 125      -2.795  15.996  33.107  1.00 17.50    -0.271 OA
HETATM   27  N5  0Q4 A 125      -3.013  15.797  35.324  1.00 19.61    -0.346 N 
HETATM   28  H5  0Q4 A 125      -3.614  15.713  36.098  1.00 15.00     0.163 HD
BRANCH  27  29
HETATM   29  CA5 0Q4 A 125      -1.587  15.671  35.537  1.00 21.82     0.172 C 
HETATM   30  CB5 0Q4 A 125      -1.277  16.086  36.963  1.00 22.24     0.042 C 
BRANCH  29  31
HETATM   31  C5  0Q4 A 125      -0.961  14.281  35.261  1.00 24.09     0.240 C 
HETATM   32  O4  0Q4 A 125       0.049  14.147  34.566  1.00 20.88    -0.271 OA
HETATM   33  N6  0Q4 A 125      -1.629  13.258  35.784  1.00 27.66    -0.346 N 
HETATM   34  H6  0Q4 A 125      -2.439  13.451  36.287  1.00 15.00     0.163 HD
BRANCH  33  35
HETATM   35  CA6 0Q4 A 125      -1.270  11.861  35.582  1.00 31.09     0.176 C 
BRANCH  35  36
HETATM   36  C6  0Q4 A 125      -2.594  11.105  35.378  1.00 33.78     0.238 C 
HETATM   37  O5  0Q4 A 125      -3.701  11.693  35.559  1.00 34.60    -0.271 OA
HETATM   38  N7  0Q4 A 125      -2.500   9.893  35.062  1.00 36.53    -0.368 N 
HETATM   39  H72 0Q4 A 125      -1.609   9.419  34.916  1.00  0.00     0.159 HD
HETATM   40  H71 0Q4 A 125      -3.378   9.392  34.927  1.00  0.00     0.159 HD
ENDBRANCH  35  36
BRANCH  35  41
HETATM   41  CB6 0Q4 A 125      -0.554  11.341  36.855  1.00 32.55     0.035 C 
BRANCH  41  42
HETATM   42  CG6 0Q4 A 125       0.931  10.853  36.706  1.00 32.73     0.002 C 
BRANCH  42  43
HETATM   43  CD4 0Q4 A 125       1.992  12.012  36.554  1.00 31.59    -0.004 C 
HETATM   44  CE  0Q4 A 125       3.404  11.476  36.676  1.00 23.29     0.005 C 
ENDBRANCH  42  43
ENDBRANCH  41  42
ENDBRANCH  35  41
ENDBRANCH  33  35
ENDBRANCH  29  31
ENDBRANCH  27  29
ENDBRANCH  24  25
BRANCH  24  45
HETATM   45  CB4 0Q4 A 125      -5.682  15.120  35.006  1.00 17.07     0.045 C 
BRANCH  45  46
HETATM   46  CG5 0Q4 A 125      -6.955  15.545  35.713  1.00 18.50     0.116 C 
BRANCH  46  47
HETATM   47  CD3 0Q4 A 125      -6.805  16.867  36.481  1.00 26.68     0.172 C 
HETATM   48  OE1 0Q4 A 125      -6.839  17.936  35.844  1.00 29.71    -0.648 OA
HETATM   49  OE2 0Q4 A 125      -6.656  16.857  37.732  1.00 31.35    -0.648 OA
ENDBRANCH  46  47
ENDBRANCH  45  46
ENDBRANCH  24  45
ENDBRANCH  22  24
ENDBRANCH  19  20
BRANCH  19  50
HETATM   50  CB3 0Q4 A 125      -7.179  14.977  30.454  1.00 18.22     0.073 C 
BRANCH  50  51
HETATM   51  CG4 0Q4 A 125      -6.459  14.531  29.242  1.00 21.59    -0.056 A 
HETATM   52  CD1 0Q4 A 125      -5.277  13.811  29.345  1.00 22.99     0.007 A 
HETATM   53  CE1 0Q4 A 125      -4.606  13.342  28.192  1.00 24.00     0.001 A 
HETATM   54  CZ1 0Q4 A 125      -5.123  13.606  26.920  1.00 25.64     0.000 A 
HETATM   55  CE2 0Q4 A 125      -6.305  14.337  26.802  1.00 27.27     0.001 A 
HETATM   56  CD2 0Q4 A 125      -6.972  14.799  27.977  1.00 24.65     0.007 A 
ENDBRANCH  50  51
ENDBRANCH  19  50
ENDBRANCH  17  19
ENDBRANCH  15  16
BRANCH  15  57
HETATM   57  CB2 0Q4 A 125      -5.370  18.226  27.002  1.00 19.32     0.034 C 
BRANCH  57  58
HETATM   58  CG3 0Q4 A 125      -5.829  19.296  25.971  1.00 21.12    -0.020 C 
HETATM   59  CD1 0Q4 A 125      -7.019  18.842  25.127  1.00 21.22     0.009 C 
HETATM   60  CD2 0Q4 A 125      -6.170  20.591  26.685  1.00 17.47     0.009 C 
ENDBRANCH  57  58
ENDBRANCH  15  57
ENDBRANCH  13  15
ENDBRANCH  10  11
BRANCH  10  61
HETATM   61  CB1 0Q4 A 125      -0.772  17.565  28.017  1.00 19.28     0.009 C 
HETATM   62  CG1 0Q4 A 125       0.722  17.321  28.238  1.00 20.08     0.012 C 
HETATM   63  CG2 0Q4 A 125      -1.522  16.279  28.422  1.00 19.54     0.012 C 
ENDBRANCH  10  61
ENDBRANCH   8  10
ENDBRANCH   5   6
BRANCH   5  64
HETATM   64  CB  0Q4 A 125       0.389  17.392  32.785  1.00 21.80     0.044 C 
BRANCH  64  65
HETATM   65  CG  0Q4 A 125       1.556  17.306  33.829  1.00 26.69     0.023 C 
BRANCH  65  66
HETATM   66  CD  0Q4 A 125       2.707  18.360  33.663  1.00 29.76     0.138 C 
BRANCH  66  67
HETATM   67  NE  0Q4 A 125       2.531  19.593  34.440  1.00 32.26    -0.227 N 
HETATM   68  CZ  0Q4 A 125       2.517  20.824  33.922  1.00 34.72     0.665 C 
HETATM   69  NH1 0Q4 A 125       2.654  20.979  32.615  1.00 35.07    -0.235 N 
HETATM   70  NH2 0Q4 A 125       2.493  21.904  34.716  1.00 35.86    -0.235 N 
HETATM   71 HH11 0Q4 A 125       2.761  20.182  32.023  1.00 15.00     0.174 HD
HETATM   72 HH12 0Q4 A 125       2.645  21.898  32.216  1.00 15.00     0.174 HD
HETATM   73 HH21 0Q4 A 125       2.481  21.803  35.710  1.00 15.00     0.174 HD
HETATM   74 HH22 0Q4 A 125       2.485  22.817  34.304  1.00 15.00     0.174 HD
HETATM   75  HE  0Q4 A 125       2.415  19.520  35.414  1.00 15.00     0.177 HD
ENDBRANCH  66  67
ENDBRANCH  65  66
ENDBRANCH  64  65
ENDBRANCH   5  64
ENDBRANCH   1   5
TORSDOF 29
ENDMDL
MODEL 18
REMARK VINA RESULT:      -5.2      4.310      9.809
REMARK  29 active torsions:
REMARK  status: ('A' for Active; 'I' for Inactive)
REMARK    1  A    between atoms: N_1  and  CA_2 
REMARK    2  A    between atoms: CA_2  and  C_4 
REMARK    3  A    between atoms: CA_2  and  CB_6 
REMARK       I    between atoms: C_4  and  N1_19 
REMARK    4  A    between atoms: CB_6  and  CG_9 
REMARK    5  A    between atoms: CG_9  and  CD_12 
REMARK    6  A    between atoms: CD_12  and  NE_15 
REMARK       I    between atoms: NE_15  and  CZ_16 
REMARK       I    between atoms: CZ_16  and  NH1_17 
REMARK    7  A    between atoms: N1_19  and  CA1_20 
REMARK    8  A    between atoms: CA1_20  and  C1_22 
REMARK    9  A    between atoms: CA1_20  and  CB1_24 
REMARK       I    between atoms: C1_22  and  N2_34 
REMARK   10  A    between atoms: N2_34  and  CA2_35 
REMARK   11  A    between atoms: CA2_35  and  C2_37 
REMARK   12  A    between atoms: CA2_35  and  CB2_39 
REMARK   13  A    between atoms: CB2_39  and  CG3_42 
REMARK   14  A    between atoms: N3_52  and  CA3_53 
REMARK   15  A    between atoms: CA3_53  and  C3_55 
REMARK   16  A    between atoms: CA3_53  and  CB3_57 
REMARK       I    between atoms: C3_55  and  N4_71 
REMARK   17  A    between atoms: CB3_57  and  CG4_60 
REMARK   18  A    between atoms: N4_71  and  CA4_72 
REMARK   19  A    between atoms: CA4_72  and  C4_74 
REMARK   20  A    between atoms: CA4_72  and  CB4_76 
REMARK       I    between atoms: C4_74  and  N5_85 
REMARK   21  A    between atoms: CB4_76  and  CG5_79 
REMARK   22  A    between atoms: CG5_79  and  CD3_82 
REMARK   23  A    between atoms: N5_85  and  CA5_86 
REMARK   24  A    between atoms: CA5_86  and  C5_88 
REMARK       I    between atoms: C5_88  and  N6_94 
REMARK   25  A    between atoms: N6_94  and  CA6_95 
REMARK   26  A    between atoms: CA6_95  and  C6_97 
REMARK   27  A    between atoms: CA6_95  and  CB6_99 
REMARK       I    between atoms: C6_97  and  N7_112 
REMARK   28  A    between atoms: CB6_99  and  CG6_102 
REMARK   29  A    between atoms: CG6_102  and  CD4_105 
ROOT
HETATM    1  N   0Q4 A 125       0.299  15.772  37.923  1.00 21.27    -0.067 N 
HETATM    2  H   0Q4 A 125       1.141  15.365  38.354  1.00 15.00     0.275 HD
HETATM    3  H2  0Q4 A 125       0.343  16.823  37.936  1.00 15.00     0.275 HD
HETATM    4  HN3 0Q4 A 125      -0.530  15.451  38.447  1.00 15.00     0.275 HD
ENDROOT
BRANCH   1   5
HETATM    5  CA  0Q4 A 125       0.185  15.391  36.482  1.00 21.76     0.274 C 
BRANCH   5   6
HETATM    6  C   0Q4 A 125      -1.032  16.143  35.854  1.00 21.89     0.249 C 
HETATM    7  O   0Q4 A 125      -1.916  16.629  36.584  1.00 22.48    -0.271 OA
HETATM    8  N1  0Q4 A 125      -1.030  16.289  34.519  1.00 19.10    -0.346 N 
HETATM    9  H1  0Q4 A 125      -0.332  15.885  33.961  1.00 15.00     0.163 HD
BRANCH   8  10
HETATM   10  CA1 0Q4 A 125      -2.071  17.017  33.791  1.00 18.90     0.180 C 
BRANCH  10  11
HETATM   11  C1  0Q4 A 125      -3.475  16.394  34.005  1.00 17.14     0.241 C 
HETATM   12  O1  0Q4 A 125      -3.762  15.267  33.621  1.00 18.87    -0.271 OA
HETATM   13  N2  0Q4 A 125      -4.392  17.193  34.522  1.00 17.78    -0.350 N 
HETATM   14  HN2 0Q4 A 125      -4.162  18.124  34.741  1.00 15.00     0.163 HD
BRANCH  13  15
HETATM   15  CA2 0Q4 A 125      -5.722  16.704  34.831  1.00 17.96     0.123 C 
BRANCH  15  16
HETATM   16  C2  0Q4 A 125      -6.697  16.606  33.664  1.00 17.56     0.081 C 
HETATM   17  N3  0Q4 A 125      -7.014  15.381  33.284  1.00 16.64    -0.387 N 
HETATM   18  H3  0Q4 A 125      -6.604  14.633  33.759  1.00 15.00     0.159 HD
BRANCH  17  19
HETATM   19  CA3 0Q4 A 125      -7.967  15.087  32.208  1.00 16.89     0.177 C 
BRANCH  19  20
HETATM   20  C3  0Q4 A 125      -7.211  15.406  30.888  1.00 15.06     0.241 C 
HETATM   21  O2  0Q4 A 125      -7.507  16.407  30.230  1.00 12.51    -0.271 OA
HETATM   22  N4  0Q4 A 125      -6.177  14.621  30.583  1.00 14.54    -0.346 N 
HETATM   23  H4  0Q4 A 125      -5.983  13.832  31.134  1.00 15.00     0.163 HD
BRANCH  22  24
HETATM   24  CA4 0Q4 A 125      -5.321  14.844  29.415  1.00 15.81     0.177 C 
BRANCH  24  25
HETATM   25  C4  0Q4 A 125      -5.107  13.630  28.506  1.00 17.52     0.241 C 
HETATM   26  O3  0Q4 A 125      -5.380  12.484  28.871  1.00 17.50    -0.271 OA
HETATM   27  N5  0Q4 A 125      -4.467  13.872  27.375  1.00 19.61    -0.346 N 
HETATM   28  H5  0Q4 A 125      -4.160  14.782  27.161  1.00 15.00     0.163 HD
BRANCH  27  29
HETATM   29  CA5 0Q4 A 125      -4.207  12.812  26.425  1.00 21.82     0.172 C 
HETATM   30  CB5 0Q4 A 125      -4.120  13.420  25.038  1.00 22.24     0.042 C 
BRANCH  29  31
HETATM   31  C5  0Q4 A 125      -2.952  11.940  26.680  1.00 24.09     0.240 C 
HETATM   32  O4  0Q4 A 125      -1.831  12.434  26.816  1.00 20.88    -0.271 OA
HETATM   33  N6  0Q4 A 125      -3.178  10.630  26.681  1.00 27.66    -0.346 N 
HETATM   34  H6  0Q4 A 125      -4.088  10.324  26.527  1.00 15.00     0.163 HD
BRANCH  33  35
HETATM   35  CA6 0Q4 A 125      -2.134   9.623  26.818  1.00 31.09     0.176 C 
BRANCH  35  36
HETATM   36  C6  0Q4 A 125      -1.696   9.266  25.388  1.00 33.78     0.238 C 
HETATM   37  O5  0Q4 A 125      -2.560   9.092  24.479  1.00 34.60    -0.271 OA
HETATM   38  N7  0Q4 A 125      -0.461   9.130  25.201  1.00 36.53    -0.368 N 
HETATM   39  H72 0Q4 A 125       0.235   9.270  25.933  1.00  0.00     0.159 HD
HETATM   40  H71 0Q4 A 125      -0.171   8.893  24.253  1.00  0.00     0.159 HD
ENDBRANCH  35  36
BRANCH  35  41
HETATM   41  CB6 0Q4 A 125      -2.733   8.375  27.516  1.00 32.55     0.035 C 
BRANCH  41  42
HETATM   42  CG6 0Q4 A 125      -1.813   7.113  27.665  1.00 32.73     0.002 C 
BRANCH  42  43
HETATM   43  CD4 0Q4 A 125      -2.372   5.805  26.978  1.00 31.59    -0.004 C 
HETATM   44  CE  0Q4 A 125      -2.903   4.833  28.011  1.00 23.29     0.005 C 
ENDBRANCH  42  43
ENDBRANCH  41  42
ENDBRANCH  35  41
ENDBRANCH  33  35
ENDBRANCH  29  31
ENDBRANCH  27  29
ENDBRANCH  24  25
BRANCH  24  45
HETATM   45  CB4 0Q4 A 125      -3.945  15.392  29.886  1.00 17.07     0.045 C 
BRANCH  45  46
HETATM   46  CG5 0Q4 A 125      -3.463  16.690  29.268  1.00 18.50     0.116 C 
BRANCH  46  47
HETATM   47  CD3 0Q4 A 125      -4.492  17.326  28.321  1.00 26.68     0.172 C 
HETATM   48  OE1 0Q4 A 125      -5.300  18.152  28.786  1.00 29.71    -0.648 OA
HETATM   49  OE2 0Q4 A 125      -4.506  17.014  27.101  1.00 31.35    -0.648 OA
ENDBRANCH  46  47
ENDBRANCH  45  46
ENDBRANCH  24  45
ENDBRANCH  22  24
ENDBRANCH  19  20
BRANCH  19  50
HETATM   50  CB3 0Q4 A 125      -9.249  15.926  32.488  1.00 18.22     0.073 C 
BRANCH  50  51
HETATM   51  CG4 0Q4 A 125     -10.467  15.141  32.776  1.00 21.59    -0.056 A 
HETATM   52  CD1 0Q4 A 125     -11.580  15.231  31.952  1.00 22.99     0.007 A 
HETATM   53  CE1 0Q4 A 125     -12.733  14.449  32.195  1.00 24.00     0.001 A 
HETATM   54  CZ1 0Q4 A 125     -12.772  13.571  33.284  1.00 25.64     0.000 A 
HETATM   55  CE2 0Q4 A 125     -11.664  13.479  34.125  1.00 27.27     0.001 A 
HETATM   56  CD2 0Q4 A 125     -10.507  14.273  33.863  1.00 24.65     0.007 A 
ENDBRANCH  50  51
ENDBRANCH  19  50
ENDBRANCH  17  19
ENDBRANCH  15  16
BRANCH  15  57
HETATM   57  CB2 0Q4 A 125      -6.310  17.509  36.015  1.00 19.32     0.034 C 
BRANCH  57  58
HETATM   58  CG3 0Q4 A 125      -6.345  16.757  37.376  1.00 21.12    -0.020 C 
HETATM   59  CD1 0Q4 A 125      -7.666  16.032  37.626  1.00 21.22     0.009 C 
HETATM   60  CD2 0Q4 A 125      -5.195  15.770  37.452  1.00 17.47     0.009 C 
ENDBRANCH  57  58
ENDBRANCH  15  57
ENDBRANCH  13  15
ENDBRANCH  10  11
BRANCH  10  61
HETATM   61  CB1 0Q4 A 125      -1.653  17.182  32.240  1.00 19.28     0.009 C 
HETATM   62  CG1 0Q4 A 125      -0.913  18.497  31.987  1.00 20.08     0.012 C 
HETATM   63  CG2 0Q4 A 125      -0.727  16.030  31.800  1.00 19.54     0.012 C 
ENDBRANCH  10  61
ENDBRANCH   8  10
ENDBRANCH   5   6
BRANCH   5  64
HETATM   64  CB  0Q4 A 125       0.066  13.866  36.376  1.00 21.80     0.044 C 
BRANCH  64  65
HETATM   65  CG  0Q4 A 125      -0.499  13.110  37.628  1.00 26.69     0.023 C 
BRANCH  65  66
HETATM   66  CD  0Q4 A 125      -2.060  12.969  37.701  1.00 29.76     0.138 C 
BRANCH  66  67
HETATM   67  NE  0Q4 A 125      -2.599  11.751  37.081  1.00 32.26    -0.227 N 
HETATM   68  CZ  0Q4 A 125      -3.338  11.728  35.969  1.00 34.72     0.665 C 
HETATM   69  NH1 0Q4 A 125      -3.609  12.862  35.345  1.00 35.07    -0.235 N 
HETATM   70  NH2 0Q4 A 125      -3.908  10.589  35.547  1.00 35.86    -0.235 N 
HETATM   71 HH11 0Q4 A 125      -3.261  13.727  35.702  1.00 15.00     0.174 HD
HETATM   72 HH12 0Q4 A 125      -4.163  12.855  34.510  1.00 15.00     0.174 HD
HETATM   73 HH21 0Q4 A 125      -3.786   9.741  36.059  1.00 15.00     0.174 HD
HETATM   74 HH22 0Q4 A 125      -4.460  10.596  34.711  1.00 15.00     0.174 HD
HETATM   75  HE  0Q4 A 125      -2.410  10.886  37.507  1.00 15.00     0.177 HD
ENDBRANCH  66  67
ENDBRANCH  65  66
ENDBRANCH  64  65
ENDBRANCH   5  64
ENDBRANCH   1   5
TORSDOF 29
ENDMDL
MODEL 19
REMARK VINA RESULT:      -5.1      1.644      2.996
REMARK  29 active torsions:
REMARK  status: ('A' for Active; 'I' for Inactive)
REMARK    1  A    between atoms: N_1  and  CA_2 
REMARK    2  A    between atoms: CA_2  and  C_4 
REMARK    3  A    between atoms: CA_2  and  CB_6 
REMARK       I    between atoms: C_4  and  N1_19 
REMARK    4  A    between atoms: CB_6  and  CG_9 
REMARK    5  A    between atoms: CG_9  and  CD_12 
REMARK    6  A    between atoms: CD_12  and  NE_15 
REMARK       I    between atoms: NE_15  and  CZ_16 
REMARK       I    between atoms: CZ_16  and  NH1_17 
REMARK    7  A    between atoms: N1_19  and  CA1_20 
REMARK    8  A    between atoms: CA1_20  and  C1_22 
REMARK    9  A    between atoms: CA1_20  and  CB1_24 
REMARK       I    between atoms: C1_22  and  N2_34 
REMARK   10  A    between atoms: N2_34  and  CA2_35 
REMARK   11  A    between atoms: CA2_35  and  C2_37 
REMARK   12  A    between atoms: CA2_35  and  CB2_39 
REMARK   13  A    between atoms: CB2_39  and  CG3_42 
REMARK   14  A    between atoms: N3_52  and  CA3_53 
REMARK   15  A    between atoms: CA3_53  and  C3_55 
REMARK   16  A    between atoms: CA3_53  and  CB3_57 
REMARK       I    between atoms: C3_55  and  N4_71 
REMARK   17  A    between atoms: CB3_57  and  CG4_60 
REMARK   18  A    between atoms: N4_71  and  CA4_72 
REMARK   19  A    between atoms: CA4_72  and  C4_74 
REMARK   20  A    between atoms: CA4_72  and  CB4_76 
REMARK       I    between atoms: C4_74  and  N5_85 
REMARK   21  A    between atoms: CB4_76  and  CG5_79 
REMARK   22  A    between atoms: CG5_79  and  CD3_82 
REMARK   23  A    between atoms: N5_85  and  CA5_86 
REMARK   24  A    between atoms: CA5_86  and  C5_88 
REMARK       I    between atoms: C5_88  and  N6_94 
REMARK   25  A    between atoms: N6_94  and  CA6_95 
REMARK   26  A    between atoms: CA6_95  and  C6_97 
REMARK   27  A    between atoms: CA6_95  and  CB6_99 
REMARK       I    between atoms: C6_97  and  N7_112 
REMARK   28  A    between atoms: CB6_99  and  CG6_102 
REMARK   29  A    between atoms: CG6_102  and  CD4_105 
ROOT
HETATM    1  N   0Q4 A 125      -5.216  13.954  26.746  1.00 21.27    -0.067 N 
HETATM    2  H   0Q4 A 125      -5.093  13.802  27.757  1.00 15.00     0.275 HD
HETATM    3  H2  0Q4 A 125      -6.209  13.763  26.456  1.00 15.00     0.275 HD
HETATM    4  HN3 0Q4 A 125      -4.576  13.325  26.236  1.00 15.00     0.275 HD
ENDROOT
BRANCH   1   5
HETATM    5  CA  0Q4 A 125      -4.954  15.378  26.373  1.00 21.76     0.274 C 
BRANCH   5   6
HETATM    6  C   0Q4 A 125      -3.650  15.857  27.087  1.00 21.89     0.249 C 
HETATM    7  O   0Q4 A 125      -2.537  15.659  26.562  1.00 22.48    -0.271 OA
HETATM    8  N1  0Q4 A 125      -3.802  16.540  28.233  1.00 19.10    -0.346 N 
HETATM    9  H1  0Q4 A 125      -4.686  16.671  28.636  1.00 15.00     0.163 HD
BRANCH   8  10
HETATM   10  CA1 0Q4 A 125      -2.679  17.101  28.987  1.00 18.90     0.180 C 
BRANCH  10  11
HETATM   11  C1  0Q4 A 125      -2.408  16.317  30.298  1.00 17.14     0.241 C 
HETATM   12  O1  0Q4 A 125      -2.062  15.142  30.303  1.00 18.87    -0.271 OA
HETATM   13  N2  0Q4 A 125      -2.684  16.953  31.422  1.00 17.78    -0.350 N 
HETATM   14  HN2 0Q4 A 125      -3.045  17.867  31.392  1.00 15.00     0.163 HD
BRANCH  13  15
HETATM   15  CA2 0Q4 A 125      -2.409  16.347  32.712  1.00 17.96     0.123 C 
BRANCH  15  16
HETATM   16  C2  0Q4 A 125      -3.550  16.350  33.720  1.00 17.56     0.081 C 
HETATM   17  N3  0Q4 A 125      -3.783  15.198  34.324  1.00 16.64    -0.387 N 
HETATM   18  H3  0Q4 A 125      -3.228  14.432  34.083  1.00 15.00     0.159 HD
BRANCH  17  19
HETATM   19  CA3 0Q4 A 125      -4.812  15.017  35.355  1.00 16.89     0.177 C 
BRANCH  19  20
HETATM   20  C3  0Q4 A 125      -6.070  15.753  34.816  1.00 15.06     0.241 C 
HETATM   21  O2  0Q4 A 125      -6.348  16.884  35.223  1.00 12.51    -0.271 OA
HETATM   22  N4  0Q4 A 125      -6.743  15.153  33.834  1.00 14.54    -0.346 N 
HETATM   23  H4  0Q4 A 125      -6.488  14.249  33.547  1.00 15.00     0.163 HD
BRANCH  22  24
HETATM   24  CA4 0Q4 A 125      -7.902  15.758  33.173  1.00 15.81     0.177 C 
BRANCH  24  25
HETATM   25  C4  0Q4 A 125      -9.055  14.804  32.846  1.00 17.52     0.241 C 
HETATM   26  O3  0Q4 A 125      -9.001  13.600  33.109  1.00 17.50    -0.271 OA
HETATM   27  N5  0Q4 A 125     -10.035  15.322  32.125  1.00 19.61    -0.346 N 
HETATM   28  H5  0Q4 A 125      -9.996  16.260  31.832  1.00 15.00     0.163 HD
BRANCH  27  29
HETATM   29  CA5 0Q4 A 125     -11.186  14.527  31.755  1.00 21.82     0.172 C 
HETATM   30  CB5 0Q4 A 125     -12.246  14.690  32.828  1.00 22.24     0.042 C 
BRANCH  29  31
HETATM   31  C5  0Q4 A 125     -11.814  14.814  30.368  1.00 24.09     0.240 C 
HETATM   32  O4  0Q4 A 125     -12.817  14.216  29.971  1.00 20.88    -0.271 OA
HETATM   33  N6  0Q4 A 125     -11.155  15.704  29.633  1.00 27.66    -0.346 N 
HETATM   34  H6  0Q4 A 125     -10.350  16.099  30.009  1.00 15.00     0.163 HD
BRANCH  33  35
HETATM   35  CA6 0Q4 A 125     -11.517  16.063  28.269  1.00 31.09     0.176 C 
BRANCH  35  36
HETATM   36  C6  0Q4 A 125     -10.852  15.015  27.361  1.00 33.78     0.238 C 
HETATM   37  O5  0Q4 A 125     -11.540  14.087  26.843  1.00 34.60    -0.271 OA
HETATM   38  N7  0Q4 A 125      -9.610  15.123  27.204  1.00 36.53    -0.368 N 
HETATM   39  H72 0Q4 A 125      -9.056  15.870  27.620  1.00  0.00     0.159 HD
HETATM   40  H71 0Q4 A 125      -9.169  14.428  26.602  1.00  0.00     0.159 HD
ENDBRANCH  35  36
BRANCH  35  41
HETATM   41  CB6 0Q4 A 125     -10.950  17.472  27.957  1.00 32.55     0.035 C 
BRANCH  41  42
HETATM   42  CG6 0Q4 A 125     -11.945  18.685  28.007  1.00 32.73     0.002 C 
BRANCH  42  43
HETATM   43  CD4 0Q4 A 125     -11.306  20.076  27.618  1.00 31.59    -0.004 C 
HETATM   44  CE  0Q4 A 125     -11.522  21.098  28.715  1.00 23.29     0.005 C 
ENDBRANCH  42  43
ENDBRANCH  41  42
ENDBRANCH  35  41
ENDBRANCH  33  35
ENDBRANCH  29  31
ENDBRANCH  27  29
ENDBRANCH  24  25
BRANCH  24  45
HETATM   45  CB4 0Q4 A 125      -7.434  16.474  31.874  1.00 17.07     0.045 C 
BRANCH  45  46
HETATM   46  CG5 0Q4 A 125      -6.367  15.784  31.045  1.00 18.50     0.116 C 
BRANCH  46  47
HETATM   47  CD3 0Q4 A 125      -6.946  14.831  29.989  1.00 26.68     0.172 C 
HETATM   48  OE1 0Q4 A 125      -8.107  15.022  29.584  1.00 29.71    -0.648 OA
HETATM   49  OE2 0Q4 A 125      -6.248  13.880  29.546  1.00 31.35    -0.648 OA
ENDBRANCH  46  47
ENDBRANCH  45  46
ENDBRANCH  24  45
ENDBRANCH  22  24
ENDBRANCH  19  20
BRANCH  19  50
HETATM   50  CB3 0Q4 A 125      -4.221  15.552  36.693  1.00 18.22     0.073 C 
BRANCH  50  51
HETATM   51  CG4 0Q4 A 125      -2.868  15.058  37.027  1.00 21.59    -0.056 A 
HETATM   52  CD1 0Q4 A 125      -2.631  13.701  37.194  1.00 22.99     0.007 A 
HETATM   53  CE1 0Q4 A 125      -1.331  13.216  37.469  1.00 24.00     0.001 A 
HETATM   54  CZ1 0Q4 A 125      -0.258  14.106  37.586  1.00 25.64     0.000 A 
HETATM   55  CE2 0Q4 A 125      -0.485  15.473  37.431  1.00 27.27     0.001 A 
HETATM   56  CD2 0Q4 A 125      -1.803  15.944  37.149  1.00 24.65     0.007 A 
ENDBRANCH  50  51
ENDBRANCH  19  50
ENDBRANCH  17  19
ENDBRANCH  15  16
BRANCH  15  57
HETATM   57  CB2 0Q4 A 125      -1.108  16.946  33.300  1.00 19.32     0.034 C 
BRANCH  57  58
HETATM   58  CG3 0Q4 A 125      -0.071  15.906  33.810  1.00 21.12    -0.020 C 
HETATM   59  CD1 0Q4 A 125      -0.463  14.464  33.493  1.00 21.22     0.009 C 
HETATM   60  CD2 0Q4 A 125       1.296  16.207  33.224  1.00 17.47     0.009 C 
ENDBRANCH  57  58
ENDBRANCH  15  57
ENDBRANCH  13  15
ENDBRANCH  10  11
BRANCH  10  61
HETATM   61  CB1 0Q4 A 125      -2.891  18.687  29.201  1.00 19.28     0.009 C 
HETATM   62  CG1 0Q4 A 125      -1.628  19.481  28.858  1.00 20.08     0.012 C 
HETATM   63  CG2 0Q4 A 125      -4.032  19.211  28.305  1.00 19.54     0.012 C 
ENDBRANCH  10  61
ENDBRANCH   8  10
ENDBRANCH   5   6
BRANCH   5  64
HETATM   64  CB  0Q4 A 125      -6.180  16.225  26.739  1.00 21.80     0.044 C 
BRANCH  64  65
HETATM   65  CG  0Q4 A 125      -6.463  17.484  25.849  1.00 26.69     0.023 C 
BRANCH  65  66
HETATM   66  CD  0Q4 A 125      -7.839  18.199  26.086  1.00 29.76     0.138 C 
BRANCH  66  67
HETATM   67  NE  0Q4 A 125      -7.743  19.553  26.648  1.00 32.26    -0.227 N 
HETATM   68  CZ  0Q4 A 125      -7.727  19.835  27.953  1.00 34.72     0.665 C 
HETATM   69  NH1 0Q4 A 125      -7.784  18.848  28.832  1.00 35.07    -0.235 N 
HETATM   70  NH2 0Q4 A 125      -7.778  21.105  28.382  1.00 35.86    -0.235 N 
HETATM   71 HH11 0Q4 A 125      -7.834  17.901  28.520  1.00 15.00     0.174 HD
HETATM   72 HH12 0Q4 A 125      -7.772  19.049  29.813  1.00 15.00     0.174 HD
HETATM   73 HH21 0Q4 A 125      -7.827  21.859  27.729  1.00 15.00     0.174 HD
HETATM   74 HH22 0Q4 A 125      -7.767  21.293  29.366  1.00 15.00     0.174 HD
HETATM   75  HE  0Q4 A 125      -7.687  20.314  26.028  1.00 15.00     0.177 HD
ENDBRANCH  66  67
ENDBRANCH  65  66
ENDBRANCH  64  65
ENDBRANCH   5  64
ENDBRANCH   1   5
TORSDOF 29
ENDMDL
MODEL 20
REMARK VINA RESULT:      -5.1      2.659      8.383
REMARK  29 active torsions:
REMARK  status: ('A' for Active; 'I' for Inactive)
REMARK    1  A    between atoms: N_1  and  CA_2 
REMARK    2  A    between atoms: CA_2  and  C_4 
REMARK    3  A    between atoms: CA_2  and  CB_6 
REMARK       I    between atoms: C_4  and  N1_19 
REMARK    4  A    between atoms: CB_6  and  CG_9 
REMARK    5  A    between atoms: CG_9  and  CD_12 
REMARK    6  A    between atoms: CD_12  and  NE_15 
REMARK       I    between atoms: NE_15  and  CZ_16 
REMARK       I    between atoms: CZ_16  and  NH1_17 
REMARK    7  A    between atoms: N1_19  and  CA1_20 
REMARK    8  A    between atoms: CA1_20  and  C1_22 
REMARK    9  A    between atoms: CA1_20  and  CB1_24 
REMARK       I    between atoms: C1_22  and  N2_34 
REMARK   10  A    between atoms: N2_34  and  CA2_35 
REMARK   11  A    between atoms: CA2_35  and  C2_37 
REMARK   12  A    between atoms: CA2_35  and  CB2_39 
REMARK   13  A    between atoms: CB2_39  and  CG3_42 
REMARK   14  A    between atoms: N3_52  and  CA3_53 
REMARK   15  A    between atoms: CA3_53  and  C3_55 
REMARK   16  A    between atoms: CA3_53  and  CB3_57 
REMARK       I    between atoms: C3_55  and  N4_71 
REMARK   17  A    between atoms: CB3_57  and  CG4_60 
REMARK   18  A    between atoms: N4_71  and  CA4_72 
REMARK   19  A    between atoms: CA4_72  and  C4_74 
REMARK   20  A    between atoms: CA4_72  and  CB4_76 
REMARK       I    between atoms: C4_74  and  N5_85 
REMARK   21  A    between atoms: CB4_76  and  CG5_79 
REMARK   22  A    between atoms: CG5_79  and  CD3_82 
REMARK   23  A    between atoms: N5_85  and  CA5_86 
REMARK   24  A    between atoms: CA5_86  and  C5_88 
REMARK       I    between atoms: C5_88  and  N6_94 
REMARK   25  A    between atoms: N6_94  and  CA6_95 
REMARK   26  A    between atoms: CA6_95  and  C6_97 
REMARK   27  A    between atoms: CA6_95  and  CB6_99 
REMARK       I    between atoms: C6_97  and  N7_112 
REMARK   28  A    between atoms: CB6_99  and  CG6_102 
REMARK   29  A    between atoms: CG6_102  and  CD4_105 
ROOT
HETATM    1  N   0Q4 A 125     -11.872  14.758  31.887  1.00 21.27    -0.067 N 
HETATM    2  H   0Q4 A 125     -11.802  13.920  31.293  1.00 15.00     0.275 HD
HETATM    3  H2  0Q4 A 125     -12.865  14.917  32.194  1.00 15.00     0.275 HD
HETATM    4  HN3 0Q4 A 125     -11.537  15.574  31.351  1.00 15.00     0.275 HD
ENDROOT
BRANCH   1   5
HETATM    5  CA  0Q4 A 125     -11.081  14.602  33.146  1.00 21.76     0.274 C 
BRANCH   5   6
HETATM    6  C   0Q4 A 125      -9.559  14.661  32.799  1.00 21.89     0.249 C 
HETATM    7  O   0Q4 A 125      -8.821  13.687  33.038  1.00 22.48    -0.271 OA
HETATM    8  N1  0Q4 A 125      -9.122  15.770  32.179  1.00 19.10    -0.346 N 
HETATM    9  H1  0Q4 A 125      -9.718  16.531  32.014  1.00 15.00     0.163 HD
BRANCH   8  10
HETATM   10  CA1 0Q4 A 125      -7.737  15.950  31.740  1.00 18.90     0.180 C 
BRANCH  10  11
HETATM   11  C1  0Q4 A 125      -6.870  16.648  32.821  1.00 17.14     0.241 C 
HETATM   12  O1  0Q4 A 125      -7.122  17.769  33.245  1.00 18.87    -0.271 OA
HETATM   13  N2  0Q4 A 125      -5.768  16.014  33.179  1.00 17.78    -0.350 N 
HETATM   14  HN2 0Q4 A 125      -5.539  15.155  32.759  1.00 15.00     0.163 HD
BRANCH  13  15
HETATM   15  CA2 0Q4 A 125      -4.912  16.536  34.228  1.00 17.96     0.123 C 
BRANCH  15  16
HETATM   16  C2  0Q4 A 125      -3.487  16.893  33.827  1.00 17.56     0.081 C 
HETATM   17  N3  0Q4 A 125      -3.082  16.415  32.664  1.00 16.64    -0.387 N 
HETATM   18  H3  0Q4 A 125      -3.706  15.866  32.151  1.00 15.00     0.159 HD
BRANCH  17  19
HETATM   19  CA3 0Q4 A 125      -1.759  16.686  32.091  1.00 16.89     0.177 C 
BRANCH  19  20
HETATM   20  C3  0Q4 A 125      -2.028  17.167  30.638  1.00 15.06     0.241 C 
HETATM   21  O2  0Q4 A 125      -2.677  16.462  29.862  1.00 12.51    -0.271 OA
HETATM   22  N4  0Q4 A 125      -1.627  18.401  30.330  1.00 14.54    -0.346 N 
HETATM   23  H4  0Q4 A 125      -1.108  18.923  30.980  1.00 15.00     0.163 HD
BRANCH  22  24
HETATM   24  CA4 0Q4 A 125      -1.879  19.021  29.027  1.00 15.81     0.177 C 
BRANCH  24  25
HETATM   25  C4  0Q4 A 125      -3.283  18.810  28.451  1.00 17.52     0.241 C 
HETATM   26  O3  0Q4 A 125      -4.269  19.397  28.900  1.00 17.50    -0.271 OA
HETATM   27  N5  0Q4 A 125      -3.389  17.843  27.554  1.00 19.61    -0.346 N 
HETATM   28  H5  0Q4 A 125      -2.602  17.313  27.297  1.00 15.00     0.163 HD
BRANCH  27  29
HETATM   29  CA5 0Q4 A 125      -4.660  17.546  26.928  1.00 21.82     0.172 C 
HETATM   30  CB5 0Q4 A 125      -4.721  18.274  25.599  1.00 22.24     0.042 C 
BRANCH  29  31
HETATM   31  C5  0Q4 A 125      -4.996  16.050  26.708  1.00 24.09     0.240 C 
HETATM   32  O4  0Q4 A 125      -5.916  15.691  25.970  1.00 20.88    -0.271 OA
HETATM   33  N6  0Q4 A 125      -4.255  15.205  27.417  1.00 27.66    -0.346 N 
HETATM   34  H6  0Q4 A 125      -3.575  15.577  28.005  1.00 15.00     0.163 HD
BRANCH  33  35
HETATM   35  CA6 0Q4 A 125      -4.452  13.762  27.429  1.00 31.09     0.176 C 
BRANCH  35  36
HETATM   36  C6  0Q4 A 125      -4.852  13.399  28.869  1.00 33.78     0.238 C 
HETATM   37  O5  0Q4 A 125      -5.374  12.274  29.125  1.00 34.60    -0.271 OA
HETATM   38  N7  0Q4 A 125      -4.663  14.285  29.739  1.00 36.53    -0.368 N 
HETATM   39  H72 0Q4 A 125      -4.242  15.191  29.534  1.00  0.00     0.159 HD
HETATM   40  H71 0Q4 A 125      -4.929  14.044  30.694  1.00  0.00     0.159 HD
ENDBRANCH  35  36
BRANCH  35  41
HETATM   41  CB6 0Q4 A 125      -3.112  13.072  27.062  1.00 32.55     0.035 C 
BRANCH  41  42
HETATM   42  CG6 0Q4 A 125      -1.809  13.945  27.107  1.00 32.73     0.002 C 
BRANCH  42  43
HETATM   43  CD4 0Q4 A 125      -1.169  14.245  25.694  1.00 31.59    -0.004 C 
HETATM   44  CE  0Q4 A 125       0.174  13.560  25.549  1.00 23.29     0.005 C 
ENDBRANCH  42  43
ENDBRANCH  41  42
ENDBRANCH  35  41
ENDBRANCH  33  35
ENDBRANCH  29  31
ENDBRANCH  27  29
ENDBRANCH  24  25
BRANCH  24  45
HETATM   45  CB4 0Q4 A 125      -0.817  18.521  28.008  1.00 17.07     0.045 C 
BRANCH  45  46
HETATM   46  CG5 0Q4 A 125       0.596  19.051  28.158  1.00 18.50     0.116 C 
BRANCH  46  47
HETATM   47  CD3 0Q4 A 125       1.672  17.984  27.909  1.00 26.68     0.172 C 
HETATM   48  OE1 0Q4 A 125       2.817  18.174  28.357  1.00 29.71    -0.648 OA
HETATM   49  OE2 0Q4 A 125       1.387  16.939  27.264  1.00 31.35    -0.648 OA
ENDBRANCH  46  47
ENDBRANCH  45  46
ENDBRANCH  24  45
ENDBRANCH  22  24
ENDBRANCH  19  20
BRANCH  19  50
HETATM   50  CB3 0Q4 A 125      -0.918  15.383  32.241  1.00 18.22     0.073 C 
BRANCH  50  51
HETATM   51  CG4 0Q4 A 125      -0.440  15.094  33.609  1.00 21.59    -0.056 A 
HETATM   52  CD1 0Q4 A 125      -0.250  13.785  34.031  1.00 22.99     0.007 A 
HETATM   53  CE1 0Q4 A 125       0.249  13.501  35.323  1.00 24.00     0.001 A 
HETATM   54  CZ1 0Q4 A 125       0.555  14.543  36.205  1.00 25.64     0.000 A 
HETATM   55  CE2 0Q4 A 125       0.359  15.861  35.797  1.00 27.27     0.001 A 
HETATM   56  CD2 0Q4 A 125      -0.142  16.130  34.487  1.00 24.65     0.007 A 
ENDBRANCH  50  51
ENDBRANCH  19  50
ENDBRANCH  17  19
ENDBRANCH  15  16
BRANCH  15  57
HETATM   57  CB2 0Q4 A 125      -4.954  15.589  35.452  1.00 19.32     0.034 C 
BRANCH  57  58
HETATM   58  CG3 0Q4 A 125      -3.584  14.981  35.867  1.00 21.12    -0.020 C 
HETATM   59  CD1 0Q4 A 125      -3.278  15.153  37.354  1.00 21.22     0.009 C 
HETATM   60  CD2 0Q4 A 125      -3.536  13.510  35.499  1.00 17.47     0.009 C 
ENDBRANCH  57  58
ENDBRANCH  15  57
ENDBRANCH  13  15
ENDBRANCH  10  11
BRANCH  10  61
HETATM   61  CB1 0Q4 A 125      -7.700  16.674  30.298  1.00 19.28     0.009 C 
HETATM   62  CG1 0Q4 A 125      -6.347  17.337  30.028  1.00 20.08     0.012 C 
HETATM   63  CG2 0Q4 A 125      -7.956  15.654  29.170  1.00 19.54     0.012 C 
ENDBRANCH  10  61
ENDBRANCH   8  10
ENDBRANCH   5   6
BRANCH   5  64
HETATM   64  CB  0Q4 A 125     -11.487  13.291  33.832  1.00 21.80     0.044 C 
BRANCH  64  65
HETATM   65  CG  0Q4 A 125     -12.782  13.324  34.714  1.00 26.69     0.023 C 
BRANCH  65  66
HETATM   66  CD  0Q4 A 125     -12.594  13.806  36.196  1.00 29.76     0.138 C 
BRANCH  66  67
HETATM   67  NE  0Q4 A 125     -12.903  15.223  36.428  1.00 32.26    -0.227 N 
HETATM   68  CZ  0Q4 A 125     -13.866  15.668  37.239  1.00 34.72     0.665 C 
HETATM   69  NH1 0Q4 A 125     -14.603  14.799  37.909  1.00 35.07    -0.235 N 
HETATM   70  NH2 0Q4 A 125     -14.175  16.972  37.286  1.00 35.86    -0.235 N 
HETATM   71 HH11 0Q4 A 125     -14.437  13.819  37.813  1.00 15.00     0.174 HD
HETATM   72 HH12 0Q4 A 125     -15.328  15.123  38.520  1.00 15.00     0.174 HD
HETATM   73 HH21 0Q4 A 125     -13.686  17.631  36.716  1.00 15.00     0.174 HD
HETATM   74 HH22 0Q4 A 125     -14.903  17.283  37.901  1.00 15.00     0.174 HD
HETATM   75  HE  0Q4 A 125     -12.370  15.901  35.957  1.00 15.00     0.177 HD
ENDBRANCH  66  67
ENDBRANCH  65  66
ENDBRANCH  64  65
ENDBRANCH   5  64
ENDBRANCH   1   5
TORSDOF 29
ENDMDL
