REMARK  17 active torsions:
REMARK  status: ('A' for Active; 'I' for Inactive)
REMARK    1  A    between atoms: C01_1  and  C23_41 
REMARK    2  A    between atoms: C07_12  and  C13_24 
REMARK    3  A    between atoms: C13_24  and  O14_27 
REMARK    4  A    between atoms: O14_27  and  C15_28 
REMARK    5  A    between atoms: C15_28  and  C16_30 
REMARK    6  A    between atoms: C15_28  and  C26_48 
REMARK    7  A    between atoms: C16_30  and  C17_32 
REMARK    8  A    between atoms: C16_30  and  O25_46 
REMARK    9  A    between atoms: C17_32  and  C18_34 
REMARK   10  A    between atoms: C17_32  and  O24_44 
REMARK   11  A    between atoms: C18_34  and  C19_36 
REMARK   12  A    between atoms: C18_34  and  O22_40 
REMARK       I    between atoms: C19_36  and  N21_38 
REMARK   13  A    between atoms: N21_38  and  C39_75 
REMARK   14  A    between atoms: O22_40  and  C23_41 
REMARK       I    between atoms: C26_48  and  N28_50 
REMARK   15  A    between atoms: N28_50  and  C29_52 
REMARK   16  A    between atoms: C35_65  and  O36_67 
REMARK   17  A    between atoms: C45_88  and  O46_90 
ROOT
HETATM    1  C01 BE5 A 501      16.567  21.959   8.756  1.00 24.49     0.003 A 
HETATM    2  C02 BE5 A 501      18.013  21.787   8.523  1.00 24.30    -0.014 A 
HETATM    3  C03 BE5 A 501      18.711  20.561   8.861  1.00 26.88     0.035 A 
HETATM    4  C04 BE5 A 501      17.983  19.429   9.455  1.00 26.55     0.077 A 
HETATM    5  C05 BE5 A 501      16.530  19.562   9.702  1.00 25.99     0.133 A 
HETATM    6  C06 BE5 A 501      15.843  20.800   9.359  1.00 25.99     0.158 A 
HETATM    7  F50 BE5 A 501      15.778  18.448  10.291  1.00 29.63    -0.208 F 
HETATM    8  F51 BE5 A 501      14.351  20.974   9.593  1.00 27.35    -0.203 F 
ENDROOT
BRANCH   1   9
HETATM    9  C23 BE5 A 501      15.946  23.304   8.351  1.00 23.01     0.210 C 
BRANCH   9  10
HETATM   10  O22 BE5 A 501      14.886  23.062   7.373  1.00 22.02    -0.369 OA
BRANCH  10  11
HETATM   11  C18 BE5 A 501      15.229  22.727   5.959  1.00 18.95     0.244 C 
BRANCH  11  12
HETATM   12  C17 BE5 A 501      14.282  23.465   4.915  1.00 20.08     0.188 C 
BRANCH  12  13
HETATM   13  C16 BE5 A 501      12.997  23.686   5.566  1.00 20.53     0.188 C 
BRANCH  13  14
HETATM   14  C15 BE5 A 501      11.936  24.080   4.576  1.00 18.51     0.244 C 
BRANCH  14  15
HETATM   15  O14 BE5 A 501      11.760  23.061   3.446  1.00 19.29    -0.369 OA
BRANCH  15  16
HETATM   16  C13 BE5 A 501      11.290  23.491   2.127  1.00 21.08     0.206 C 
BRANCH  16  17
HETATM   17  C07 BE5 A 501       9.811  23.856   2.186  1.00 21.04    -0.015 A 
HETATM   18  C08 BE5 A 501       8.770  22.928   2.668  1.00 23.02     0.155 A 
HETATM   19  C09 BE5 A 501       7.342  23.366   2.704  1.00 21.73     0.132 A 
HETATM   20  F52 BE5 A 501       9.143  21.560   3.121  1.00 24.30    -0.203 F 
HETATM   21  C10 BE5 A 501       6.981  24.748   2.245  1.00 24.35     0.073 A 
HETATM   22  F49 BE5 A 501       6.315  22.450   3.184  1.00 27.68    -0.208 F 
HETATM   23  C11 BE5 A 501       8.069  25.653   1.764  1.00 23.62     0.011 A 
HETATM   24  C12 BE5 A 501       9.435  25.199   1.746  1.00 22.67     0.040 A 
ENDBRANCH  16  17
ENDBRANCH  15  16
ENDBRANCH  14  15
BRANCH  14  25
HETATM   25  C26 BE5 A 501      10.697  24.217   5.367  1.00 16.79     0.250 C 
HETATM   26  O27 BE5 A 501      10.267  23.236   6.026  1.00 20.11    -0.271 OA
HETATM   27  N28 BE5 A 501      10.049  25.410   5.370  1.00 15.99    -0.348 N 
HETATM   28  H28 BE5 A 501      10.428  26.185   4.826  1.00  0.00     0.163 HD
BRANCH  27  29
HETATM   29  C29 BE5 A 501       8.831  25.605   6.129  1.00 16.00     0.143 C 
HETATM   30  C30 BE5 A 501       9.143  26.303   7.414  1.00 16.23    -0.052 A 
HETATM   31  C31 BE5 A 501       8.009  27.145   7.803  1.00 17.03    -0.073 A 
HETATM   32  C32 BE5 A 501      10.361  26.247   8.258  1.00 16.86     0.036 A 
HETATM   33  C37 BE5 A 501       8.044  27.954   9.034  1.00 17.71     0.034 A 
HETATM   34  C38 BE5 A 501       6.940  27.011   6.789  1.00 16.65     0.068 C 
HETATM   35  C34 BE5 A 501       9.256  27.900   9.874  1.00 19.35     0.005 A 
HETATM   36  C33 BE5 A 501      10.414  27.064   9.512  1.00 18.24     0.005 A 
HETATM   37  C35 BE5 A 501       7.766  26.571   5.544  1.00 16.83     0.149 C 
BRANCH  37  38
HETATM   38  O36 BE5 A 501       8.483  27.646   4.889  1.00 14.03    -0.393 OA
HETATM   39  H36 BE5 A 501       7.831  28.237   4.531  1.00  0.00     0.210 HD
ENDBRANCH  37  38
ENDBRANCH  27  29
ENDBRANCH  14  25
ENDBRANCH  13  14
BRANCH  13  40
HETATM   40  O25 BE5 A 501      13.137  24.798   6.543  1.00 21.98    -0.390 OA
HETATM   41  H25 BE5 A 501      13.807  24.549   7.168  1.00  0.00     0.210 HD
ENDBRANCH  13  40
ENDBRANCH  12  13
BRANCH  12  42
HETATM   42  O24 BE5 A 501      14.843  24.745   4.519  1.00 17.11    -0.390 OA
HETATM   43  H24 BE5 A 501      15.681  24.601   4.095  1.00  0.00     0.210 HD
ENDBRANCH  12  42
ENDBRANCH  11  12
BRANCH  11  44
HETATM   44  C19 BE5 A 501      15.186  21.217   5.792  1.00 17.37     0.250 C 
HETATM   45  O20 BE5 A 501      14.128  20.572   6.003  1.00 18.21    -0.271 OA
HETATM   46  N21 BE5 A 501      16.340  20.585   5.428  1.00 14.53    -0.348 N 
HETATM   47  H21 BE5 A 501      17.174  21.152   5.274  1.00  0.00     0.163 HD
BRANCH  46  48
HETATM   48  C39 BE5 A 501      16.442  19.156   5.250  1.00 14.05     0.143 C 
HETATM   49  C40 BE5 A 501      16.360  18.758   3.782  1.00 15.79    -0.052 A 
HETATM   50  C41 BE5 A 501      17.305  17.688   3.510  1.00 16.99    -0.073 A 
HETATM   51  C42 BE5 A 501      15.512  19.292   2.705  1.00 16.33     0.036 A 
HETATM   52  C47 BE5 A 501      17.449  17.103   2.162  1.00 17.22     0.034 A 
HETATM   53  C48 BE5 A 501      18.023  17.353   4.783  1.00 15.28     0.068 C 
HETATM   54  C44 BE5 A 501      16.601  17.640   1.096  1.00 17.66     0.005 A 
HETATM   55  C43 BE5 A 501      15.636  18.719   1.330  1.00 18.87     0.005 A 
HETATM   56  C45 BE5 A 501      17.846  18.620   5.638  1.00 13.23     0.149 C 
BRANCH  56  57
HETATM   57  O46 BE5 A 501      18.812  19.662   5.343  1.00 13.13    -0.393 OA
HETATM   58  H46 BE5 A 501      19.671  19.334   5.580  1.00  0.00     0.210 HD
ENDBRANCH  56  57
ENDBRANCH  46  48
ENDBRANCH  11  44
ENDBRANCH  10  11
ENDBRANCH   9  10
ENDBRANCH   1   9
TORSDOF 17
