MODEL 1
REMARK VINA RESULT:      -6.8      0.000      0.000
REMARK  6 active torsions:
REMARK  status: ('A' for Active; 'I' for Inactive)
REMARK    1  A    between atoms: C3_5  and  C7_14 
REMARK    2  A    between atoms: C5_8  and  S1_11 
REMARK    3  A    between atoms: C7_14  and  O3_17 
REMARK    4  A    between atoms: O3_17  and  C8_18 
REMARK    5  A    between atoms: C14_27  and  N4_34 
REMARK    6  A    between atoms: C15_30  and  N3_33 
ROOT
HETATM    1  C1  31G B 401      30.614  -9.658  12.284  1.00 81.96     0.002 A 
HETATM    2  C2  31G B 401      29.873  -8.540  12.628  1.00 79.63     0.009 A 
HETATM    3  C3  31G B 401      28.662  -8.262  12.011  1.00 77.68    -0.033 A 
HETATM    4  C4  31G B 401      28.148  -9.186  11.103  1.00 86.10     0.033 A 
HETATM    5  C5  31G B 401      28.878 -10.321  10.778  1.00 93.12     0.075 A 
HETATM    6  C6  31G B 401      30.126 -10.555  11.350  1.00 87.75     0.024 A 
ENDROOT
BRANCH   3   7
HETATM    7  C7  31G B 401      28.005  -6.932  12.275  1.00 65.67     0.214 C 
BRANCH   7   8
HETATM    8  O3  31G B 401      26.850  -6.491  11.527  1.00 53.78    -0.346 OA
BRANCH   8   9
HETATM    9  C8  31G B 401      26.299  -5.234  11.600  1.00 47.27     0.085 C 
HETATM   10  C9  31G B 401      26.724  -4.145  12.339  1.00 42.14     0.038 C 
HETATM   11  C10 31G B 401      26.068  -2.918  12.225  1.00 33.99     0.005 C 
HETATM   12  C11 31G B 401      24.952  -2.781  11.461  1.00 33.71     0.031 C 
HETATM   13  C12 31G B 401      24.386  -3.911  10.825  1.00 39.37     0.066 A 
HETATM   14  C13 31G B 401      25.070  -5.175  10.868  1.00 44.07     0.069 A 
HETATM   15  N2  31G B 401      23.112  -3.779  10.330  1.00 39.79    -0.191 N 
HETATM   16  C14 31G B 401      24.250  -6.289  10.316  1.00 43.60     0.130 A 
HETATM   17  N1  31G B 401      23.014  -6.139   9.843  1.00 41.12    -0.176 N 
HETATM   18  C15 31G B 401      22.479  -4.897   9.888  1.00 40.11     0.677 A 
HETATM   19  H1  31G B 401      22.491  -6.928   9.463  1.00  0.00     0.186 HD
HETATM   20  H2  31G B 401      22.654  -2.869  10.295  1.00  0.00     0.184 HD
BRANCH  16  21
HETATM   21  N4  31G B 401      24.742  -7.539  10.263  1.00 45.29    -0.384 N 
HETATM   22  H12 31G B 401      25.733  -7.723  10.153  0.00 45.23     0.157 HD
HETATM   23  H13 31G B 401      24.143  -8.343  10.417  0.00 45.23     0.157 HD
ENDBRANCH  16  21
BRANCH  18  24
HETATM   24  N3  31G B 401      21.201  -4.783   9.510  1.00 39.21    -0.234 N 
HETATM   25  H11 31G B 401      20.930  -4.884   8.538  0.00 39.23     0.174 HD
HETATM   26  H10 31G B 401      20.473  -4.530  10.172  0.00 39.23     0.174 HD
ENDBRANCH  18  24
ENDBRANCH   8   9
ENDBRANCH   7   8
ENDBRANCH   3   7
BRANCH   5  27
HETATM   27  S1  31G B 401      28.213 -11.448   9.612  1.00101.94     0.286 S 
HETATM   28  O1  31G B 401      26.845 -11.649   9.897  1.00104.04    -0.206 OA
HETATM   29  O2  31G B 401      28.595 -11.144   8.287  1.00104.12    -0.206 OA
ENDBRANCH   5  27
TORSDOF 6
ENDMDL
MODEL 2
REMARK VINA RESULT:      -6.6      3.656      7.283
REMARK  6 active torsions:
REMARK  status: ('A' for Active; 'I' for Inactive)
REMARK    1  A    between atoms: C3_5  and  C7_14 
REMARK    2  A    between atoms: C5_8  and  S1_11 
REMARK    3  A    between atoms: C7_14  and  O3_17 
REMARK    4  A    between atoms: O3_17  and  C8_18 
REMARK    5  A    between atoms: C14_27  and  N4_34 
REMARK    6  A    between atoms: C15_30  and  N3_33 
ROOT
HETATM    1  C1  31G B 401      24.567  -2.799  10.692  1.00 81.96     0.002 A 
HETATM    2  C2  31G B 401      25.766  -3.436  10.961  1.00 79.63     0.009 A 
HETATM    3  C3  31G B 401      25.860  -4.821  10.965  1.00 77.68    -0.033 A 
HETATM    4  C4  31G B 401      24.745  -5.567  10.590  1.00 86.10     0.033 A 
HETATM    5  C5  31G B 401      23.549  -4.926  10.293  1.00 93.12     0.075 A 
HETATM    6  C6  31G B 401      23.445  -3.539  10.362  1.00 87.75     0.024 A 
ENDROOT
BRANCH   3   7
HETATM    7  C7  31G B 401      27.131  -5.456  11.466  1.00 65.67     0.214 C 
BRANCH   7   8
HETATM    8  O3  31G B 401      27.405  -6.863  11.276  1.00 53.78    -0.346 OA
BRANCH   8   9
HETATM    9  C8  31G B 401      28.137  -7.644  12.137  1.00 47.27     0.085 C 
HETATM   10  C9  31G B 401      28.297  -7.509  13.504  1.00 42.14     0.038 C 
HETATM   11  C10 31G B 401      29.029  -8.455  14.225  1.00 33.99     0.005 C 
HETATM   12  C11 31G B 401      29.673  -9.476  13.600  1.00 33.71     0.031 C 
HETATM   13  C12 31G B 401      29.676  -9.552  12.187  1.00 39.37     0.066 A 
HETATM   14  C13 31G B 401      28.881  -8.634  11.418  1.00 44.07     0.069 A 
HETATM   15  N2  31G B 401      30.581 -10.407  11.607  1.00 39.79    -0.191 N 
HETATM   16  C14 31G B 401      29.147  -8.731   9.955  1.00 43.60     0.130 A 
HETATM   17  N1  31G B 401      30.032  -9.567   9.415  1.00 41.12    -0.176 N 
HETATM   18  C15 31G B 401      30.734 -10.357  10.258  1.00 40.11     0.677 A 
HETATM   19  H1  31G B 401      30.175  -9.609   8.406  1.00  0.00     0.186 HD
HETATM   20  H2  31G B 401      31.122 -11.061  12.173  1.00  0.00     0.184 HD
BRANCH  16  21
HETATM   21  N4  31G B 401      28.477  -7.956   9.085  1.00 45.29    -0.384 N 
HETATM   22  H12 31G B 401      28.447  -8.163   8.092  0.00 45.23     0.157 HD
HETATM   23  H13 31G B 401      27.905  -7.183   9.407  0.00 45.23     0.157 HD
ENDBRANCH  16  21
BRANCH  18  24
HETATM   24  N3  31G B 401      31.693 -11.112   9.711  1.00 39.21    -0.234 N 
HETATM   25  H11 31G B 401      31.905 -11.055   8.720  0.00 39.23     0.174 HD
HETATM   26  H10 31G B 401      32.194 -11.809  10.253  0.00 39.23     0.174 HD
ENDBRANCH  18  24
ENDBRANCH   8   9
ENDBRANCH   7   8
ENDBRANCH   3   7
BRANCH   5  27
HETATM   27  S1  31G B 401      22.158  -5.898   9.851  1.00101.94     0.286 S 
HETATM   28  O1  31G B 401      21.041  -5.052   9.684  1.00104.04    -0.206 OA
HETATM   29  O2  31G B 401      22.456  -6.841   8.843  1.00104.12    -0.206 OA
ENDBRANCH   5  27
TORSDOF 6
ENDMDL
MODEL 3
REMARK VINA RESULT:      -6.6      4.341      7.180
REMARK  6 active torsions:
REMARK  status: ('A' for Active; 'I' for Inactive)
REMARK    1  A    between atoms: C3_5  and  C7_14 
REMARK    2  A    between atoms: C5_8  and  S1_11 
REMARK    3  A    between atoms: C7_14  and  O3_17 
REMARK    4  A    between atoms: O3_17  and  C8_18 
REMARK    5  A    between atoms: C14_27  and  N4_34 
REMARK    6  A    between atoms: C15_30  and  N3_33 
ROOT
HETATM    1  C1  31G B 401      24.539  -2.627  10.988  1.00 81.96     0.002 A 
HETATM    2  C2  31G B 401      25.797  -3.176  11.161  1.00 79.63     0.009 A 
HETATM    3  C3  31G B 401      26.002  -4.546  11.070  1.00 77.68    -0.033 A 
HETATM    4  C4  31G B 401      24.933  -5.358  10.698  1.00 86.10     0.033 A 
HETATM    5  C5  31G B 401      23.676  -4.803  10.498  1.00 93.12     0.075 A 
HETATM    6  C6  31G B 401      23.465  -3.436  10.662  1.00 87.75     0.024 A 
ENDROOT
BRANCH   3   7
HETATM    7  C7  31G B 401      27.344  -5.103  11.470  1.00 65.67     0.214 C 
BRANCH   7   8
HETATM    8  O3  31G B 401      27.475  -6.102  12.506  1.00 53.78    -0.346 OA
BRANCH   8   9
HETATM    9  C8  31G B 401      27.562  -5.831  13.851  1.00 47.27     0.085 C 
HETATM   10  C9  31G B 401      27.210  -4.677  14.526  1.00 42.14     0.038 C 
HETATM   11  C10 31G B 401      27.305  -4.617  15.917  1.00 33.99     0.005 C 
HETATM   12  C11 31G B 401      27.825  -5.649  16.635  1.00 33.71     0.031 C 
HETATM   13  C12 31G B 401      28.355  -6.779  15.968  1.00 39.37     0.066 A 
HETATM   14  C13 31G B 401      28.215  -6.901  14.543  1.00 44.07     0.069 A 
HETATM   15  N2  31G B 401      29.132  -7.635  16.708  1.00 39.79    -0.191 N 
HETATM   16  C14 31G B 401      28.988  -8.047  13.987  1.00 43.60     0.130 A 
HETATM   17  N1  31G B 401      29.739  -8.864  14.724  1.00 41.12    -0.176 N 
HETATM   18  C15 31G B 401      29.805  -8.617  16.052  1.00 40.11     0.677 A 
HETATM   19  H1  31G B 401      30.245  -9.644  14.304  1.00  0.00     0.186 HD
HETATM   20  H2  31G B 401      29.203  -7.538  17.721  1.00  0.00     0.184 HD
BRANCH  16  21
HETATM   21  N4  31G B 401      28.957  -8.319  12.671  1.00 45.29    -0.384 N 
HETATM   22  H12 31G B 401      28.528  -7.690  12.001  0.00 45.23     0.157 HD
HETATM   23  H13 31G B 401      29.440  -9.126  12.293  0.00 45.23     0.157 HD
ENDBRANCH  16  21
BRANCH  18  24
HETATM   24  N3  31G B 401      30.646  -9.379  16.761  1.00 39.21    -0.234 N 
HETATM   25  H11 31G B 401      31.039  -9.052  17.637  0.00 39.23     0.174 HD
HETATM   26  H10 31G B 401      30.966 -10.278  16.415  0.00 39.23     0.174 HD
ENDBRANCH  18  24
ENDBRANCH   8   9
ENDBRANCH   7   8
ENDBRANCH   3   7
BRANCH   5  27
HETATM   27  S1  31G B 401      22.347  -5.858  10.057  1.00101.94     0.286 S 
HETATM   28  O1  31G B 401      21.223  -5.069   9.731  1.00104.04    -0.206 OA
HETATM   29  O2  31G B 401      22.743  -6.882   9.169  1.00104.12    -0.206 OA
ENDBRANCH   5  27
TORSDOF 6
ENDMDL
MODEL 4
REMARK VINA RESULT:      -6.5      2.416      3.600
REMARK  6 active torsions:
REMARK  status: ('A' for Active; 'I' for Inactive)
REMARK    1  A    between atoms: C3_5  and  C7_14 
REMARK    2  A    between atoms: C5_8  and  S1_11 
REMARK    3  A    between atoms: C7_14  and  O3_17 
REMARK    4  A    between atoms: O3_17  and  C8_18 
REMARK    5  A    between atoms: C14_27  and  N4_34 
REMARK    6  A    between atoms: C15_30  and  N3_33 
ROOT
HETATM    1  C1  31G B 401      29.414 -10.746  10.086  1.00 81.96     0.002 A 
HETATM    2  C2  31G B 401      28.449  -9.881   9.602  1.00 79.63     0.009 A 
HETATM    3  C3  31G B 401      27.962  -8.838  10.378  1.00 77.68    -0.033 A 
HETATM    4  C4  31G B 401      28.538  -8.611  11.627  1.00 86.10     0.033 A 
HETATM    5  C5  31G B 401      29.526  -9.463  12.102  1.00 93.12     0.075 A 
HETATM    6  C6  31G B 401      29.957 -10.549  11.344  1.00 87.75     0.024 A 
ENDROOT
BRANCH   3   7
HETATM    7  C7  31G B 401      26.771  -8.061   9.880  1.00 65.67     0.214 C 
BRANCH   7   8
HETATM    8  O3  31G B 401      25.991  -7.219  10.757  1.00 53.78    -0.346 OA
BRANCH   8   9
HETATM    9  C8  31G B 401      24.771  -6.671  10.439  1.00 47.27     0.085 C 
HETATM   10  C9  31G B 401      23.741  -7.221   9.700  1.00 42.14     0.038 C 
HETATM   11  C10 31G B 401      22.537  -6.531   9.544  1.00 33.99     0.005 C 
HETATM   12  C11 31G B 401      22.376  -5.273  10.035  1.00 33.71     0.031 C 
HETATM   13  C12 31G B 401      23.463  -4.607  10.649  1.00 39.37     0.066 A 
HETATM   14  C13 31G B 401      24.695  -5.311  10.882  1.00 44.07     0.069 A 
HETATM   15  N2  31G B 401      23.340  -3.254  10.844  1.00 39.79    -0.191 N 
HETATM   16  C14 31G B 401      25.786  -4.415  11.359  1.00 43.60     0.130 A 
HETATM   17  N1  31G B 401      25.644  -3.103  11.539  1.00 41.12    -0.176 N 
HETATM   18  C15 31G B 401      24.436  -2.564  11.253  1.00 40.11     0.677 A 
HETATM   19  H1  31G B 401      26.415  -2.527  11.878  1.00  0.00     0.186 HD
HETATM   20  H2  31G B 401      22.450  -2.780  10.687  1.00  0.00     0.184 HD
BRANCH  16  21
HETATM   21  N4  31G B 401      27.002  -4.910  11.643  1.00 45.29    -0.384 N 
HETATM   22  H12 31G B 401      27.613  -5.283  10.925  0.00 45.23     0.157 HD
HETATM   23  H13 31G B 401      27.386  -4.847  12.580  0.00 45.23     0.157 HD
ENDBRANCH  16  21
BRANCH  18  24
HETATM   24  N3  31G B 401      24.341  -1.232  11.336  1.00 39.21    -0.234 N 
HETATM   25  H11 31G B 401      23.733  -0.791  12.017  0.00 39.23     0.174 HD
HETATM   26  H10 31G B 401      24.824  -0.624  10.682  0.00 39.23     0.174 HD
ENDBRANCH  18  24
ENDBRANCH   8   9
ENDBRANCH   7   8
ENDBRANCH   3   7
BRANCH   5  27
HETATM   27  S1  31G B 401      30.209  -9.162  13.688  1.00101.94     0.286 S 
HETATM   28  O1  31G B 401      29.184  -8.729  14.555  1.00104.04    -0.206 OA
HETATM   29  O2  31G B 401      31.068 -10.200  14.112  1.00104.12    -0.206 OA
ENDBRANCH   5  27
TORSDOF 6
ENDMDL
MODEL 5
REMARK VINA RESULT:      -6.4      4.616      6.878
REMARK  6 active torsions:
REMARK  status: ('A' for Active; 'I' for Inactive)
REMARK    1  A    between atoms: C3_5  and  C7_14 
REMARK    2  A    between atoms: C5_8  and  S1_11 
REMARK    3  A    between atoms: C7_14  and  O3_17 
REMARK    4  A    between atoms: O3_17  and  C8_18 
REMARK    5  A    between atoms: C14_27  and  N4_34 
REMARK    6  A    between atoms: C15_30  and  N3_33 
ROOT
HETATM    1  C1  31G B 401      29.004  -2.529   7.873  1.00 81.96     0.002 A 
HETATM    2  C2  31G B 401      28.518  -3.064   9.053  1.00 79.63     0.009 A 
HETATM    3  C3  31G B 401      28.346  -2.278  10.183  1.00 77.68    -0.033 A 
HETATM    4  C4  31G B 401      28.578  -0.908  10.085  1.00 86.10     0.033 A 
HETATM    5  C5  31G B 401      29.040  -0.366   8.893  1.00 93.12     0.075 A 
HETATM    6  C6  31G B 401      29.277  -1.175   7.784  1.00 87.75     0.024 A 
ENDROOT
BRANCH   3   7
HETATM    7  C7  31G B 401      28.013  -2.953  11.489  1.00 65.67     0.214 C 
BRANCH   7   8
HETATM    8  O3  31G B 401      26.705  -3.510  11.744  1.00 53.78    -0.346 OA
BRANCH   8   9
HETATM    9  C8  31G B 401      26.283  -4.750  11.325  1.00 47.27     0.085 C 
HETATM   10  C9  31G B 401      27.034  -5.891  11.108  1.00 42.14     0.038 C 
HETATM   11  C10 31G B 401      26.410  -7.088  10.750  1.00 33.99     0.005 C 
HETATM   12  C11 31G B 401      25.071  -7.144  10.518  1.00 33.71     0.031 C 
HETATM   13  C12 31G B 401      24.294  -5.962  10.561  1.00 39.37     0.066 A 
HETATM   14  C13 31G B 401      24.891  -4.727  10.989  1.00 44.07     0.069 A 
HETATM   15  N2  31G B 401      23.031  -6.023  10.026  1.00 39.79    -0.191 N 
HETATM   16  C14 31G B 401      23.991  -3.557  10.795  1.00 43.60     0.130 A 
HETATM   17  N1  31G B 401      22.768  -3.639  10.271  1.00 41.12    -0.176 N 
HETATM   18  C15 31G B 401      22.340  -4.862   9.883  1.00 40.11     0.677 A 
HETATM   19  H1  31G B 401      22.180  -2.812  10.166  1.00  0.00     0.186 HD
HETATM   20  H2  31G B 401      22.623  -6.914   9.744  1.00  0.00     0.184 HD
BRANCH  16  21
HETATM   21  N4  31G B 401      24.383  -2.324  11.159  1.00 45.29    -0.384 N 
HETATM   22  H12 31G B 401      25.353  -2.103  11.354  0.00 45.23     0.157 HD
HETATM   23  H13 31G B 401      23.729  -1.549  11.166  0.00 45.23     0.157 HD
ENDBRANCH  16  21
BRANCH  18  24
HETATM   24  N3  31G B 401      21.157  -4.911   9.262  1.00 39.21    -0.234 N 
HETATM   25  H11 31G B 401      20.368  -5.397   9.674  0.00 39.23     0.174 HD
HETATM   26  H10 31G B 401      21.029  -4.521   8.333  0.00 39.23     0.174 HD
ENDBRANCH  18  24
ENDBRANCH   8   9
ENDBRANCH   7   8
ENDBRANCH   3   7
BRANCH   5  27
HETATM   27  S1  31G B 401      29.346   1.359   8.812  1.00101.94     0.286 S 
HETATM   28  O1  31G B 401      29.627   1.713   7.475  1.00104.04    -0.206 OA
HETATM   29  O2  31G B 401      28.391   2.111   9.531  1.00104.12    -0.206 OA
ENDBRANCH   5  27
TORSDOF 6
ENDMDL
MODEL 6
REMARK VINA RESULT:      -6.4      2.258      3.323
REMARK  6 active torsions:
REMARK  status: ('A' for Active; 'I' for Inactive)
REMARK    1  A    between atoms: C3_5  and  C7_14 
REMARK    2  A    between atoms: C5_8  and  S1_11 
REMARK    3  A    between atoms: C7_14  and  O3_17 
REMARK    4  A    between atoms: O3_17  and  C8_18 
REMARK    5  A    between atoms: C14_27  and  N4_34 
REMARK    6  A    between atoms: C15_30  and  N3_33 
ROOT
HETATM    1  C1  31G B 401      30.218  -7.395   9.472  1.00 81.96     0.002 A 
HETATM    2  C2  31G B 401      28.867  -7.263   9.740  1.00 79.63     0.009 A 
HETATM    3  C3  31G B 401      28.049  -8.376   9.881  1.00 77.68    -0.033 A 
HETATM    4  C4  31G B 401      28.633  -9.641   9.848  1.00 86.10     0.033 A 
HETATM    5  C5  31G B 401      29.994  -9.772   9.606  1.00 93.12     0.075 A 
HETATM    6  C6  31G B 401      30.793  -8.651   9.395  1.00 87.75     0.024 A 
ENDROOT
BRANCH   3   7
HETATM    7  C7  31G B 401      26.559  -8.172   9.965  1.00 65.67     0.214 C 
BRANCH   7   8
HETATM    8  O3  31G B 401      25.984  -7.050  10.672  1.00 53.78    -0.346 OA
BRANCH   8   9
HETATM    9  C8  31G B 401      24.753  -6.500  10.404  1.00 47.27     0.085 C 
HETATM   10  C9  31G B 401      23.699  -7.042   9.692  1.00 42.14     0.038 C 
HETATM   11  C10 31G B 401      22.490  -6.352   9.588  1.00 33.99     0.005 C 
HETATM   12  C11 31G B 401      22.344  -5.101  10.101  1.00 33.71     0.031 C 
HETATM   13  C12 31G B 401      23.451  -4.442  10.686  1.00 39.37     0.066 A 
HETATM   14  C13 31G B 401      24.690  -5.146  10.867  1.00 44.07     0.069 A 
HETATM   15  N2  31G B 401      23.332  -3.091  10.904  1.00 39.79    -0.191 N 
HETATM   16  C14 31G B 401      25.796  -4.255  11.318  1.00 43.60     0.130 A 
HETATM   17  N1  31G B 401      25.658  -2.945  11.521  1.00 41.12    -0.176 N 
HETATM   18  C15 31G B 401      24.441  -2.405  11.284  1.00 40.11     0.677 A 
HETATM   19  H1  31G B 401      26.440  -2.373  11.841  1.00  0.00     0.186 HD
HETATM   20  H2  31G B 401      22.437  -2.617  10.783  1.00  0.00     0.184 HD
BRANCH  16  21
HETATM   21  N4  31G B 401      27.022  -4.751  11.555  1.00 45.29    -0.384 N 
HETATM   22  H12 31G B 401      27.824  -4.496  10.988  0.00 45.23     0.157 HD
HETATM   23  H13 31G B 401      27.203  -5.334  12.365  0.00 45.23     0.157 HD
ENDBRANCH  16  21
BRANCH  18  24
HETATM   24  N3  31G B 401      24.347  -1.075  11.389  1.00 39.21    -0.234 N 
HETATM   25  H11 31G B 401      23.475  -0.629  11.652  0.00 39.23     0.174 HD
HETATM   26  H10 31G B 401      25.124  -0.468  11.147  0.00 39.23     0.174 HD
ENDBRANCH  18  24
ENDBRANCH   8   9
ENDBRANCH   7   8
ENDBRANCH   3   7
BRANCH   5  27
HETATM   27  S1  31G B 401      30.689 -11.380   9.546  1.00101.94     0.286 S 
HETATM   28  O1  31G B 401      31.192 -11.615   8.249  1.00104.04    -0.206 OA
HETATM   29  O2  31G B 401      31.517 -11.653  10.658  1.00104.12    -0.206 OA
ENDBRANCH   5  27
TORSDOF 6
ENDMDL
MODEL 7
REMARK VINA RESULT:      -6.4      1.812      3.043
REMARK  6 active torsions:
REMARK  status: ('A' for Active; 'I' for Inactive)
REMARK    1  A    between atoms: C3_5  and  C7_14 
REMARK    2  A    between atoms: C5_8  and  S1_11 
REMARK    3  A    between atoms: C7_14  and  O3_17 
REMARK    4  A    between atoms: O3_17  and  C8_18 
REMARK    5  A    between atoms: C14_27  and  N4_34 
REMARK    6  A    between atoms: C15_30  and  N3_33 
ROOT
HETATM    1  C1  31G B 401      29.490  -9.174  12.284  1.00 81.96     0.002 A 
HETATM    2  C2  31G B 401      28.332  -8.620  11.768  1.00 79.63     0.009 A 
HETATM    3  C3  31G B 401      27.920  -8.892  10.471  1.00 77.68    -0.033 A 
HETATM    4  C4  31G B 401      28.641  -9.820   9.722  1.00 86.10     0.033 A 
HETATM    5  C5  31G B 401      29.788 -10.397  10.250  1.00 93.12     0.075 A 
HETATM    6  C6  31G B 401      30.233 -10.063  11.527  1.00 87.75     0.024 A 
ENDROOT
BRANCH   3   7
HETATM    7  C7  31G B 401      26.772  -8.102   9.897  1.00 65.67     0.214 C 
BRANCH   7   8
HETATM    8  O3  31G B 401      26.207  -6.968  10.592  1.00 53.78    -0.346 OA
BRANCH   8   9
HETATM    9  C8  31G B 401      24.934  -6.485  10.403  1.00 47.27     0.085 C 
HETATM   10  C9  31G B 401      23.865  -7.089   9.766  1.00 42.14     0.038 C 
HETATM   11  C10 31G B 401      22.617  -6.464   9.739  1.00 33.99     0.005 C 
HETATM   12  C11 31G B 401      22.439  -5.218  10.253  1.00 33.71     0.031 C 
HETATM   13  C12 31G B 401      23.545  -4.496  10.759  1.00 39.37     0.066 A 
HETATM   14  C13 31G B 401      24.830  -5.132  10.862  1.00 44.07     0.069 A 
HETATM   15  N2  31G B 401      23.370  -3.152  10.977  1.00 39.79    -0.191 N 
HETATM   16  C14 31G B 401      25.914  -4.180  11.233  1.00 43.60     0.130 A 
HETATM   17  N1  31G B 401      25.721  -2.877  11.437  1.00 41.12    -0.176 N 
HETATM   18  C15 31G B 401      24.464  -2.404  11.279  1.00 40.11     0.677 A 
HETATM   19  H1  31G B 401      26.490  -2.262  11.701  1.00  0.00     0.186 HD
HETATM   20  H2  31G B 401      22.445  -2.726  10.913  1.00  0.00     0.184 HD
BRANCH  16  21
HETATM   21  N4  31G B 401      27.178  -4.609  11.390  1.00 45.29    -0.384 N 
HETATM   22  H12 31G B 401      27.497  -5.493  11.010  0.00 45.23     0.157 HD
HETATM   23  H13 31G B 401      27.880  -4.019  11.822  0.00 45.23     0.157 HD
ENDBRANCH  16  21
BRANCH  18  24
HETATM   24  N3  31G B 401      24.306  -1.080  11.381  1.00 39.21    -0.234 N 
HETATM   25  H11 31G B 401      24.657  -0.453  10.666  0.00 39.23     0.174 HD
HETATM   26  H10 31G B 401      23.888  -0.658  12.205  0.00 39.23     0.174 HD
ENDBRANCH  18  24
ENDBRANCH   8   9
ENDBRANCH   7   8
ENDBRANCH   3   7
BRANCH   5  27
HETATM   27  S1  31G B 401      30.685 -11.541   9.270  1.00101.94     0.286 S 
HETATM   28  O1  31G B 401      30.034 -11.691   8.028  1.00104.04    -0.206 OA
HETATM   29  O2  31G B 401      32.076 -11.291   9.285  1.00104.12    -0.206 OA
ENDBRANCH   5  27
TORSDOF 6
ENDMDL
MODEL 8
REMARK VINA RESULT:      -6.4      4.092      7.506
REMARK  6 active torsions:
REMARK  status: ('A' for Active; 'I' for Inactive)
REMARK    1  A    between atoms: C3_5  and  C7_14 
REMARK    2  A    between atoms: C5_8  and  S1_11 
REMARK    3  A    between atoms: C7_14  and  O3_17 
REMARK    4  A    between atoms: O3_17  and  C8_18 
REMARK    5  A    between atoms: C14_27  and  N4_34 
REMARK    6  A    between atoms: C15_30  and  N3_33 
ROOT
HETATM    1  C1  31G B 401      24.475  -2.610  10.831  1.00 81.96     0.002 A 
HETATM    2  C2  31G B 401      25.708  -3.148  11.154  1.00 79.63     0.009 A 
HETATM    3  C3  31G B 401      25.906  -4.521  11.196  1.00 77.68    -0.033 A 
HETATM    4  C4  31G B 401      24.862  -5.358  10.806  1.00 86.10     0.033 A 
HETATM    5  C5  31G B 401      23.632  -4.816  10.455  1.00 93.12     0.075 A 
HETATM    6  C6  31G B 401      23.423  -3.440  10.486  1.00 87.75     0.024 A 
ENDROOT
BRANCH   3   7
HETATM    7  C7  31G B 401      27.203  -5.047  11.752  1.00 65.67     0.214 C 
BRANCH   7   8
HETATM    8  O3  31G B 401      27.246  -6.200  12.623  1.00 53.78    -0.346 OA
BRANCH   8   9
HETATM    9  C8  31G B 401      27.996  -7.330  12.395  1.00 47.27     0.085 C 
HETATM   10  C9  31G B 401      27.993  -8.162  11.290  1.00 42.14     0.038 C 
HETATM   11  C10 31G B 401      28.888  -9.230  11.211  1.00 33.99     0.005 C 
HETATM   12  C11 31G B 401      29.718  -9.535  12.244  1.00 33.71     0.031 C 
HETATM   13  C12 31G B 401      29.632  -8.814  13.459  1.00 39.37     0.066 A 
HETATM   14  C13 31G B 401      28.768  -7.669  13.552  1.00 44.07     0.069 A 
HETATM   15  N2  31G B 401      30.263  -9.351  14.553  1.00 39.79    -0.191 N 
HETATM   16  C14 31G B 401      28.655  -7.147  14.943  1.00 43.60     0.130 A 
HETATM   17  N1  31G B 401      29.275  -7.687  15.991  1.00 41.12    -0.176 N 
HETATM   18  C15 31G B 401      30.037  -8.782  15.766  1.00 40.11     0.677 A 
HETATM   19  H1  31G B 401      29.179  -7.291  16.926  1.00  0.00     0.186 HD
HETATM   20  H2  31G B 401      30.884 -10.156  14.459  1.00  0.00     0.184 HD
BRANCH  16  21
HETATM   21  N4  31G B 401      27.901  -6.067  15.210  1.00 45.29    -0.384 N 
HETATM   22  H12 31G B 401      27.825  -5.682  16.145  0.00 45.23     0.157 HD
HETATM   23  H13 31G B 401      27.449  -5.548  14.465  0.00 45.23     0.157 HD
ENDBRANCH  16  21
BRANCH  18  24
HETATM   24  N3  31G B 401      30.565  -9.375  16.843  1.00 39.21    -0.234 N 
HETATM   25  H11 31G B 401      29.977  -9.714  17.596  0.00 39.23     0.174 HD
HETATM   26  H10 31G B 401      31.570  -9.448  16.968  0.00 39.23     0.174 HD
ENDBRANCH  18  24
ENDBRANCH   8   9
ENDBRANCH   7   8
ENDBRANCH   3   7
BRANCH   5  27
HETATM   27  S1  31G B 401      22.333  -5.900   9.995  1.00101.94     0.286 S 
HETATM   28  O1  31G B 401      21.189  -5.137   9.677  1.00104.04    -0.206 OA
HETATM   29  O2  31G B 401      22.758  -6.900   9.093  1.00104.12    -0.206 OA
ENDBRANCH   5  27
TORSDOF 6
ENDMDL
MODEL 9
REMARK VINA RESULT:      -6.4      9.928     11.708
REMARK  6 active torsions:
REMARK  status: ('A' for Active; 'I' for Inactive)
REMARK    1  A    between atoms: C3_5  and  C7_14 
REMARK    2  A    between atoms: C5_8  and  S1_11 
REMARK    3  A    between atoms: C7_14  and  O3_17 
REMARK    4  A    between atoms: O3_17  and  C8_18 
REMARK    5  A    between atoms: C14_27  and  N4_34 
REMARK    6  A    between atoms: C15_30  and  N3_33 
ROOT
HETATM    1  C1  31G B 401      31.175   2.514   5.106  1.00 81.96     0.002 A 
HETATM    2  C2  31G B 401      30.664   1.249   4.874  1.00 79.63     0.009 A 
HETATM    3  C3  31G B 401      30.143   0.483   5.907  1.00 77.68    -0.033 A 
HETATM    4  C4  31G B 401      30.047   1.051   7.176  1.00 86.10     0.033 A 
HETATM    5  C5  31G B 401      30.535   2.332   7.403  1.00 93.12     0.075 A 
HETATM    6  C6  31G B 401      31.122   3.065   6.374  1.00 87.75     0.024 A 
ENDROOT
BRANCH   3   7
HETATM    7  C7  31G B 401      29.794  -0.957   5.634  1.00 65.67     0.214 C 
BRANCH   7   8
HETATM    8  O3  31G B 401      29.657  -1.464   4.288  1.00 53.78    -0.346 OA
BRANCH   8   9
HETATM    9  C8  31G B 401      30.697  -1.906   3.505  1.00 47.27     0.085 C 
HETATM   10  C9  31G B 401      31.604  -1.164   2.772  1.00 42.14     0.038 C 
HETATM   11  C10 31G B 401      32.645  -1.796   2.090  1.00 33.99     0.005 C 
HETATM   12  C11 31G B 401      32.745  -3.152   2.055  1.00 33.71     0.031 C 
HETATM   13  C12 31G B 401      31.741  -3.953   2.649  1.00 39.37     0.066 A 
HETATM   14  C13 31G B 401      30.691  -3.335   3.412  1.00 44.07     0.069 A 
HETATM   15  N2  31G B 401      31.728  -5.286   2.324  1.00 39.79    -0.191 N 
HETATM   16  C14 31G B 401      29.624  -4.298   3.804  1.00 43.60     0.130 A 
HETATM   17  N1  31G B 401      29.631  -5.589   3.474  1.00 41.12    -0.176 N 
HETATM   18  C15 31G B 401      30.667  -6.033   2.727  1.00 40.11     0.677 A 
HETATM   19  H1  31G B 401      28.884  -6.217   3.772  1.00  0.00     0.186 HD
HETATM   20  H2  31G B 401      32.493  -5.705   1.794  1.00  0.00     0.184 HD
BRANCH  16  21
HETATM   21  N4  31G B 401      28.573  -3.894   4.537  1.00 45.29    -0.384 N 
HETATM   22  H12 31G B 401      27.692  -4.398   4.539  0.00 45.23     0.157 HD
HETATM   23  H13 31G B 401      28.654  -3.116   5.182  0.00 45.23     0.157 HD
ENDBRANCH  16  21
BRANCH  18  24
HETATM   24  N3  31G B 401      30.605  -7.304   2.314  1.00 39.21    -0.234 N 
HETATM   25  H11 31G B 401      30.178  -7.547   1.427  0.00 39.23     0.174 HD
HETATM   26  H10 31G B 401      30.925  -8.068   2.901  0.00 39.23     0.174 HD
ENDBRANCH  18  24
ENDBRANCH   8   9
ENDBRANCH   7   8
ENDBRANCH   3   7
BRANCH   5  27
HETATM   27  S1  31G B 401      30.421   3.005   9.017  1.00101.94     0.286 S 
HETATM   28  O1  31G B 401      29.452   4.031   9.020  1.00104.04    -0.206 OA
HETATM   29  O2  31G B 401      30.361   2.007  10.016  1.00104.12    -0.206 OA
ENDBRANCH   5  27
TORSDOF 6
ENDMDL
MODEL 10
REMARK VINA RESULT:      -6.4      4.331      6.858
REMARK  6 active torsions:
REMARK  status: ('A' for Active; 'I' for Inactive)
REMARK    1  A    between atoms: C3_5  and  C7_14 
REMARK    2  A    between atoms: C5_8  and  S1_11 
REMARK    3  A    between atoms: C7_14  and  O3_17 
REMARK    4  A    between atoms: O3_17  and  C8_18 
REMARK    5  A    between atoms: C14_27  and  N4_34 
REMARK    6  A    between atoms: C15_30  and  N3_33 
ROOT
HETATM    1  C1  31G B 401      25.462   0.203  12.831  1.00 81.96     0.002 A 
HETATM    2  C2  31G B 401      24.638  -0.750  12.258  1.00 79.63     0.009 A 
HETATM    3  C3  31G B 401      25.142  -1.707  11.387  1.00 77.68    -0.033 A 
HETATM    4  C4  31G B 401      26.518  -1.758  11.175  1.00 86.10     0.033 A 
HETATM    5  C5  31G B 401      27.348  -0.818  11.772  1.00 93.12     0.075 A 
HETATM    6  C6  31G B 401      26.824   0.182  12.587  1.00 87.75     0.024 A 
ENDROOT
BRANCH   3   7
HETATM    7  C7  31G B 401      24.171  -2.583  10.637  1.00 65.67     0.214 C 
BRANCH   7   8
HETATM    8  O3  31G B 401      23.774  -3.879  11.137  1.00 53.78    -0.346 OA
BRANCH   8   9
HETATM    9  C8  31G B 401      24.455  -5.051  10.909  1.00 47.27     0.085 C 
HETATM   10  C9  31G B 401      25.781  -5.345  11.168  1.00 42.14     0.038 C 
HETATM   11  C10 31G B 401      26.278  -6.629  10.932  1.00 33.99     0.005 C 
HETATM   12  C11 31G B 401      25.504  -7.592  10.365  1.00 33.71     0.031 C 
HETATM   13  C12 31G B 401      24.194  -7.282   9.928  1.00 39.37     0.066 A 
HETATM   14  C13 31G B 401      23.630  -5.991  10.212  1.00 44.07     0.069 A 
HETATM   15  N2  31G B 401      23.580  -8.187   9.098  1.00 39.79    -0.191 N 
HETATM   16  C14 31G B 401      22.328  -5.769   9.523  1.00 43.60     0.130 A 
HETATM   17  N1  31G B 401      21.752  -6.662   8.719  1.00 41.12    -0.176 N 
HETATM   18  C15 31G B 401      22.406  -7.827   8.515  1.00 40.11     0.677 A 
HETATM   19  H1  31G B 401      20.853  -6.473   8.275  1.00  0.00     0.186 HD
HETATM   20  H2  31G B 401      23.992  -9.104   8.924  1.00  0.00     0.184 HD
BRANCH  16  21
HETATM   21  N4  31G B 401      21.652  -4.620   9.692  1.00 45.29    -0.384 N 
HETATM   22  H12 31G B 401      21.381  -4.035   8.908  0.00 45.23     0.157 HD
HETATM   23  H13 31G B 401      21.314  -4.343  10.606  0.00 45.23     0.157 HD
ENDBRANCH  16  21
BRANCH  18  24
HETATM   24  N3  31G B 401      21.868  -8.667   7.624  1.00 39.21    -0.234 N 
HETATM   25  H11 31G B 401      20.895  -8.589   7.350  0.00 39.23     0.174 HD
HETATM   26  H10 31G B 401      22.397  -9.445   7.242  0.00 39.23     0.174 HD
ENDBRANCH  18  24
ENDBRANCH   8   9
ENDBRANCH   7   8
ENDBRANCH   3   7
BRANCH   5  27
HETATM   27  S1  31G B 401      29.071  -0.896  11.461  1.00101.94     0.286 S 
HETATM   28  O1  31G B 401      29.470  -2.249  11.420  1.00104.04    -0.206 OA
HETATM   29  O2  31G B 401      29.472  -0.035  10.416  1.00104.12    -0.206 OA
ENDBRANCH   5  27
TORSDOF 6
ENDMDL
MODEL 11
REMARK VINA RESULT:      -6.2      3.743      5.831
REMARK  6 active torsions:
REMARK  status: ('A' for Active; 'I' for Inactive)
REMARK    1  A    between atoms: C3_5  and  C7_14 
REMARK    2  A    between atoms: C5_8  and  S1_11 
REMARK    3  A    between atoms: C7_14  and  O3_17 
REMARK    4  A    between atoms: O3_17  and  C8_18 
REMARK    5  A    between atoms: C14_27  and  N4_34 
REMARK    6  A    between atoms: C15_30  and  N3_33 
ROOT
HETATM    1  C1  31G B 401      28.859  -0.144   9.039  1.00 81.96     0.002 A 
HETATM    2  C2  31G B 401      28.598  -0.788  10.236  1.00 79.63     0.009 A 
HETATM    3  C3  31G B 401      28.560  -2.173  10.314  1.00 77.68    -0.033 A 
HETATM    4  C4  31G B 401      28.892  -2.915   9.183  1.00 86.10     0.033 A 
HETATM    5  C5  31G B 401      29.180  -2.268   7.988  1.00 93.12     0.075 A 
HETATM    6  C6  31G B 401      29.145  -0.878   7.902  1.00 87.75     0.024 A 
ENDROOT
BRANCH   3   7
HETATM    7  C7  31G B 401      28.070  -2.811  11.588  1.00 65.67     0.214 C 
BRANCH   7   8
HETATM    8  O3  31G B 401      26.728  -3.334  11.709  1.00 53.78    -0.346 OA
BRANCH   8   9
HETATM    9  C8  31G B 401      26.339  -4.595  11.322  1.00 47.27     0.085 C 
HETATM   10  C9  31G B 401      27.119  -5.718  11.124  1.00 42.14     0.038 C 
HETATM   11  C10 31G B 401      26.527  -6.940  10.798  1.00 33.99     0.005 C 
HETATM   12  C11 31G B 401      25.188  -7.040  10.582  1.00 33.71     0.031 C 
HETATM   13  C12 31G B 401      24.377  -5.880  10.607  1.00 39.37     0.066 A 
HETATM   14  C13 31G B 401      24.943  -4.619  11.001  1.00 44.07     0.069 A 
HETATM   15  N2  31G B 401      23.112  -5.989  10.086  1.00 39.79    -0.191 N 
HETATM   16  C14 31G B 401      24.008  -3.479  10.790  1.00 43.60     0.130 A 
HETATM   17  N1  31G B 401      22.783  -3.608  10.281  1.00 41.12    -0.176 N 
HETATM   18  C15 31G B 401      22.387  -4.851   9.925  1.00 40.11     0.677 A 
HETATM   19  H1  31G B 401      22.170  -2.801  10.163  1.00  0.00     0.186 HD
HETATM   20  H2  31G B 401      22.726  -6.898   9.828  1.00  0.00     0.184 HD
BRANCH  16  21
HETATM   21  N4  31G B 401      24.368  -2.228  11.122  1.00 45.29    -0.384 N 
HETATM   22  H12 31G B 401      23.839  -1.674  11.788  0.00 45.23     0.157 HD
HETATM   23  H13 31G B 401      25.233  -1.825  10.779  0.00 45.23     0.157 HD
ENDBRANCH  16  21
BRANCH  18  24
HETATM   24  N3  31G B 401      21.199  -4.948   9.317  1.00 39.21    -0.234 N 
HETATM   25  H11 31G B 401      21.071  -5.547   8.508  0.00 39.23     0.174 HD
HETATM   26  H10 31G B 401      20.408  -4.381   9.605  0.00 39.23     0.174 HD
ENDBRANCH  18  24
ENDBRANCH   8   9
ENDBRANCH   7   8
ENDBRANCH   3   7
BRANCH   5  27
HETATM   27  S1  31G B 401      29.567  -3.234   6.577  1.00101.94     0.286 S 
HETATM   28  O1  31G B 401      29.198  -4.573   6.822  1.00104.04    -0.206 OA
HETATM   29  O2  31G B 401      29.154  -2.622   5.373  1.00104.12    -0.206 OA
ENDBRANCH   5  27
TORSDOF 6
ENDMDL
MODEL 12
REMARK VINA RESULT:      -6.1      2.449      3.336
REMARK  6 active torsions:
REMARK  status: ('A' for Active; 'I' for Inactive)
REMARK    1  A    between atoms: C3_5  and  C7_14 
REMARK    2  A    between atoms: C5_8  and  S1_11 
REMARK    3  A    between atoms: C7_14  and  O3_17 
REMARK    4  A    between atoms: O3_17  and  C8_18 
REMARK    5  A    between atoms: C14_27  and  N4_34 
REMARK    6  A    between atoms: C15_30  and  N3_33 
ROOT
HETATM    1  C1  31G B 401      30.366  -9.800  12.875  1.00 81.96     0.002 A 
HETATM    2  C2  31G B 401      29.717  -9.095  11.877  1.00 79.63     0.009 A 
HETATM    3  C3  31G B 401      28.829  -8.072  12.180  1.00 77.68    -0.033 A 
HETATM    4  C4  31G B 401      28.675  -7.695  13.512  1.00 86.10     0.033 A 
HETATM    5  C5  31G B 401      29.347  -8.385  14.512  1.00 93.12     0.075 A 
HETATM    6  C6  31G B 401      30.181  -9.457  14.203  1.00 87.75     0.024 A 
ENDROOT
BRANCH   3   7
HETATM    7  C7  31G B 401      28.001  -7.483  11.067  1.00 65.67     0.214 C 
BRANCH   7   8
HETATM    8  O3  31G B 401      26.630  -7.074  11.275  1.00 53.78    -0.346 OA
BRANCH   8   9
HETATM    9  C8  31G B 401      26.209  -5.771  11.400  1.00 47.27     0.085 C 
HETATM   10  C9  31G B 401      26.765  -4.751  12.149  1.00 42.14     0.038 C 
HETATM   11  C10 31G B 401      26.231  -3.462  12.091  1.00 33.99     0.005 C 
HETATM   12  C11 31G B 401      25.107  -3.195  11.374  1.00 33.71     0.031 C 
HETATM   13  C12 31G B 401      24.410  -4.246  10.731  1.00 39.37     0.066 A 
HETATM   14  C13 31G B 401      24.966  -5.571  10.718  1.00 44.07     0.069 A 
HETATM   15  N2  31G B 401      23.139  -3.976  10.290  1.00 39.79    -0.191 N 
HETATM   16  C14 31G B 401      24.021  -6.584  10.169  1.00 43.60     0.130 A 
HETATM   17  N1  31G B 401      22.790  -6.299   9.748  1.00 41.12    -0.176 N 
HETATM   18  C15 31G B 401      22.383  -5.013   9.844  1.00 40.11     0.677 A 
HETATM   19  H1  31G B 401      22.179  -7.023   9.369  1.00  0.00     0.186 HD
HETATM   20  H2  31G B 401      22.772  -3.024  10.295  1.00  0.00     0.184 HD
BRANCH  16  21
HETATM   21  N4  31G B 401      24.385  -7.874  10.066  1.00 45.29    -0.384 N 
HETATM   22  H12 31G B 401      23.777  -8.573   9.652  0.00 45.23     0.157 HD
HETATM   23  H13 31G B 401      25.318  -8.176  10.323  0.00 45.23     0.157 HD
ENDBRANCH  16  21
BRANCH  18  24
HETATM   24  N3  31G B 401      21.109  -4.763   9.519  1.00 39.21    -0.234 N 
HETATM   25  H11 31G B 401      20.731  -3.824   9.563  0.00 39.23     0.174 HD
HETATM   26  H10 31G B 401      20.467  -5.512   9.279  0.00 39.23     0.174 HD
ENDBRANCH  18  24
ENDBRANCH   8   9
ENDBRANCH   7   8
ENDBRANCH   3   7
BRANCH   5  27
HETATM   27  S1  31G B 401      29.109  -7.900  16.179  1.00101.94     0.286 S 
HETATM   28  O1  31G B 401      30.365  -7.628  16.763  1.00104.04    -0.206 OA
HETATM   29  O2  31G B 401      28.072  -6.952  16.323  1.00104.12    -0.206 OA
ENDBRANCH   5  27
TORSDOF 6
ENDMDL
MODEL 13
REMARK VINA RESULT:      -6.1      3.852      7.665
REMARK  6 active torsions:
REMARK  status: ('A' for Active; 'I' for Inactive)
REMARK    1  A    between atoms: C3_5  and  C7_14 
REMARK    2  A    between atoms: C5_8  and  S1_11 
REMARK    3  A    between atoms: C7_14  and  O3_17 
REMARK    4  A    between atoms: O3_17  and  C8_18 
REMARK    5  A    between atoms: C14_27  and  N4_34 
REMARK    6  A    between atoms: C15_30  and  N3_33 
ROOT
HETATM    1  C1  31G B 401      22.786  -4.921  10.213  1.00 81.96     0.002 A 
HETATM    2  C2  31G B 401      23.505  -6.102  10.252  1.00 79.63     0.009 A 
HETATM    3  C3  31G B 401      24.843  -6.118  10.619  1.00 77.68    -0.033 A 
HETATM    4  C4  31G B 401      25.431  -4.930  11.049  1.00 86.10     0.033 A 
HETATM    5  C5  31G B 401      24.702  -3.749  11.035  1.00 93.12     0.075 A 
HETATM    6  C6  31G B 401      23.380  -3.731  10.596  1.00 87.75     0.024 A 
ENDROOT
BRANCH   3   7
HETATM    7  C7  31G B 401      25.625  -7.395  10.444  1.00 65.67     0.214 C 
BRANCH   7   8
HETATM    8  O3  31G B 401      27.065  -7.426  10.561  1.00 53.78    -0.346 OA
BRANCH   8   9
HETATM    9  C8  31G B 401      27.754  -7.848  11.673  1.00 47.27     0.085 C 
HETATM   10  C9  31G B 401      27.706  -7.349  12.961  1.00 42.14     0.038 C 
HETATM   11  C10 31G B 401      28.433  -7.963  13.983  1.00 33.99     0.005 C 
HETATM   12  C11 31G B 401      29.270  -9.004  13.726  1.00 33.71     0.031 C 
HETATM   13  C12 31G B 401      29.479  -9.434  12.395  1.00 39.37     0.066 A 
HETATM   14  C13 31G B 401      28.699  -8.868  11.329  1.00 44.07     0.069 A 
HETATM   15  N2  31G B 401      30.547 -10.266  12.165  1.00 39.79    -0.191 N 
HETATM   16  C14 31G B 401      29.175  -9.292   9.982  1.00 43.60     0.130 A 
HETATM   17  N1  31G B 401      30.216 -10.099   9.782  1.00 41.12    -0.176 N 
HETATM   18  C15 31G B 401      30.880 -10.538  10.876  1.00 40.11     0.677 A 
HETATM   19  H1  31G B 401      30.502 -10.373   8.842  1.00  0.00     0.186 HD
HETATM   20  H2  31G B 401      31.075 -10.668  12.939  1.00  0.00     0.184 HD
BRANCH  16  21
HETATM   21  N4  31G B 401      28.549  -8.870   8.870  1.00 45.29    -0.384 N 
HETATM   22  H12 31G B 401      27.538  -8.886   8.783  0.00 45.23     0.157 HD
HETATM   23  H13 31G B 401      29.065  -8.439   8.112  0.00 45.23     0.157 HD
ENDBRANCH  16  21
BRANCH  18  24
HETATM   24  N3  31G B 401      31.985 -11.258  10.655  1.00 39.21    -0.234 N 
HETATM   25  H11 31G B 401      32.058 -11.877   9.855  0.00 39.23     0.174 HD
HETATM   26  H10 31G B 401      32.759 -11.256  11.313  0.00 39.23     0.174 HD
ENDBRANCH  18  24
ENDBRANCH   8   9
ENDBRANCH   7   8
ENDBRANCH   3   7
BRANCH   5  27
HETATM   27  S1  31G B 401      25.481  -2.269  11.557  1.00101.94     0.286 S 
HETATM   28  O1  31G B 401      26.675  -2.095  10.824  1.00104.04    -0.206 OA
HETATM   29  O2  31G B 401      24.578  -1.187  11.656  1.00104.12    -0.206 OA
ENDBRANCH   5  27
TORSDOF 6
ENDMDL
MODEL 14
REMARK VINA RESULT:      -6.1      2.797      4.018
REMARK  6 active torsions:
REMARK  status: ('A' for Active; 'I' for Inactive)
REMARK    1  A    between atoms: C3_5  and  C7_14 
REMARK    2  A    between atoms: C5_8  and  S1_11 
REMARK    3  A    between atoms: C7_14  and  O3_17 
REMARK    4  A    between atoms: O3_17  and  C8_18 
REMARK    5  A    between atoms: C14_27  and  N4_34 
REMARK    6  A    between atoms: C15_30  and  N3_33 
ROOT
HETATM    1  C1  31G B 401      29.884  -9.739   9.427  1.00 81.96     0.002 A 
HETATM    2  C2  31G B 401      28.515  -9.579   9.549  1.00 79.63     0.009 A 
HETATM    3  C3  31G B 401      27.945  -8.318   9.658  1.00 77.68    -0.033 A 
HETATM    4  C4  31G B 401      28.768  -7.201   9.540  1.00 86.10     0.033 A 
HETATM    5  C5  31G B 401      30.140  -7.361   9.390  1.00 93.12     0.075 A 
HETATM    6  C6  31G B 401      30.710  -8.631   9.354  1.00 87.75     0.024 A 
ENDROOT
BRANCH   3   7
HETATM    7  C7  31G B 401      26.480  -8.215   9.994  1.00 65.67     0.214 C 
BRANCH   7   8
HETATM    8  O3  31G B 401      25.933  -7.059  10.666  1.00 53.78    -0.346 OA
BRANCH   8   9
HETATM    9  C8  31G B 401      24.709  -6.496  10.393  1.00 47.27     0.085 C 
HETATM   10  C9  31G B 401      23.654  -7.028   9.674  1.00 42.14     0.038 C 
HETATM   11  C10 31G B 401      22.452  -6.327   9.564  1.00 33.99     0.005 C 
HETATM   12  C11 31G B 401      22.314  -5.076  10.080  1.00 33.71     0.031 C 
HETATM   13  C12 31G B 401      23.423  -4.428  10.674  1.00 39.37     0.066 A 
HETATM   14  C13 31G B 401      24.655  -5.143  10.860  1.00 44.07     0.069 A 
HETATM   15  N2  31G B 401      23.315  -3.077  10.895  1.00 39.79    -0.191 N 
HETATM   16  C14 31G B 401      25.766  -4.263  11.320  1.00 43.60     0.130 A 
HETATM   17  N1  31G B 401      25.639  -2.953  11.525  1.00 41.12    -0.176 N 
HETATM   18  C15 31G B 401      24.428  -2.402  11.284  1.00 40.11     0.677 A 
HETATM   19  H1  31G B 401      26.423  -2.389  11.852  1.00  0.00     0.186 HD
HETATM   20  H2  31G B 401      22.425  -2.595  10.770  1.00  0.00     0.184 HD
BRANCH  16  21
HETATM   21  N4  31G B 401      26.987  -4.771  11.561  1.00 45.29    -0.384 N 
HETATM   22  H12 31G B 401      27.550  -4.466  12.347  0.00 45.23     0.157 HD
HETATM   23  H13 31G B 401      27.350  -5.542  11.012  0.00 45.23     0.157 HD
ENDBRANCH  16  21
BRANCH  18  24
HETATM   24  N3  31G B 401      24.345  -1.071  11.391  1.00 39.21    -0.234 N 
HETATM   25  H11 31G B 401      23.467  -0.616  11.618  0.00 39.23     0.174 HD
HETATM   26  H10 31G B 401      25.139  -0.472  11.188  0.00 39.23     0.174 HD
ENDBRANCH  18  24
ENDBRANCH   8   9
ENDBRANCH   7   8
ENDBRANCH   3   7
BRANCH   5  27
HETATM   27  S1  31G B 401      31.149  -5.933   9.271  1.00101.94     0.286 S 
HETATM   28  O1  31G B 401      31.298  -5.587   7.911  1.00104.04    -0.206 OA
HETATM   29  O2  31G B 401      30.775  -4.929  10.193  1.00104.12    -0.206 OA
ENDBRANCH   5  27
TORSDOF 6
ENDMDL
MODEL 15
REMARK VINA RESULT:      -6.1      3.917      5.802
REMARK  6 active torsions:
REMARK  status: ('A' for Active; 'I' for Inactive)
REMARK    1  A    between atoms: C3_5  and  C7_14 
REMARK    2  A    between atoms: C5_8  and  S1_11 
REMARK    3  A    between atoms: C7_14  and  O3_17 
REMARK    4  A    between atoms: O3_17  and  C8_18 
REMARK    5  A    between atoms: C14_27  and  N4_34 
REMARK    6  A    between atoms: C15_30  and  N3_33 
ROOT
HETATM    1  C1  31G B 401      25.082  -3.267  16.379  1.00 81.96     0.002 A 
HETATM    2  C2  31G B 401      25.019  -3.040  15.015  1.00 79.63     0.009 A 
HETATM    3  C3  31G B 401      26.024  -3.479  14.165  1.00 77.68    -0.033 A 
HETATM    4  C4  31G B 401      27.059  -4.246  14.696  1.00 86.10     0.033 A 
HETATM    5  C5  31G B 401      27.109  -4.496  16.061  1.00 93.12     0.075 A 
HETATM    6  C6  31G B 401      26.132  -3.990  16.916  1.00 87.75     0.024 A 
ENDROOT
BRANCH   3   7
HETATM    7  C7  31G B 401      26.004  -3.026  12.728  1.00 65.67     0.214 C 
BRANCH   7   8
HETATM    8  O3  31G B 401      25.242  -3.727  11.720  1.00 53.78    -0.346 OA
BRANCH   8   9
HETATM    9  C8  31G B 401      25.499  -5.008  11.291  1.00 47.27     0.085 C 
HETATM   10  C9  31G B 401      26.691  -5.708  11.324  1.00 42.14     0.038 C 
HETATM   11  C10 31G B 401      26.739  -7.039  10.903  1.00 33.99     0.005 C 
HETATM   12  C11 31G B 401      25.647  -7.651  10.372  1.00 33.71     0.031 C 
HETATM   13  C12 31G B 401      24.455  -6.917  10.162  1.00 39.37     0.066 A 
HETATM   14  C13 31G B 401      24.352  -5.566  10.641  1.00 44.07     0.069 A 
HETATM   15  N2  31G B 401      23.503  -7.487   9.354  1.00 39.79    -0.191 N 
HETATM   16  C14 31G B 401      23.112  -4.885  10.174  1.00 43.60     0.130 A 
HETATM   17  N1  31G B 401      22.202  -5.456   9.387  1.00 41.12    -0.176 N 
HETATM   18  C15 31G B 401      22.439  -6.726   8.985  1.00 40.11     0.677 A 
HETATM   19  H1  31G B 401      21.361  -4.957   9.099  1.00  0.00     0.186 HD
HETATM   20  H2  31G B 401      23.591  -8.453   9.039  1.00  0.00     0.184 HD
BRANCH  16  21
HETATM   21  N4  31G B 401      22.846  -3.620  10.543  1.00 45.29    -0.384 N 
HETATM   22  H12 31G B 401      23.043  -3.279  11.478  0.00 45.23     0.157 HD
HETATM   23  H13 31G B 401      22.516  -2.938   9.869  0.00 45.23     0.157 HD
ENDBRANCH  16  21
BRANCH  18  24
HETATM   24  N3  31G B 401      21.571  -7.248   8.110  1.00 39.21    -0.234 N 
HETATM   25  H11 31G B 401      20.690  -7.645   8.418  0.00 39.23     0.174 HD
HETATM   26  H10 31G B 401      21.793  -7.320   7.122  0.00 39.23     0.174 HD
ENDBRANCH  18  24
ENDBRANCH   8   9
ENDBRANCH   7   8
ENDBRANCH   3   7
BRANCH   5  27
HETATM   27  S1  31G B 401      28.440  -5.443  16.698  1.00101.94     0.286 S 
HETATM   28  O1  31G B 401      28.163  -6.813  16.505  1.00104.04    -0.206 OA
HETATM   29  O2  31G B 401      29.699  -4.939  16.303  1.00104.12    -0.206 OA
ENDBRANCH   5  27
TORSDOF 6
ENDMDL
MODEL 16
REMARK VINA RESULT:      -6.1      4.001      5.665
REMARK  6 active torsions:
REMARK  status: ('A' for Active; 'I' for Inactive)
REMARK    1  A    between atoms: C3_5  and  C7_14 
REMARK    2  A    between atoms: C5_8  and  S1_11 
REMARK    3  A    between atoms: C7_14  and  O3_17 
REMARK    4  A    between atoms: O3_17  and  C8_18 
REMARK    5  A    between atoms: C14_27  and  N4_34 
REMARK    6  A    between atoms: C15_30  and  N3_33 
ROOT
HETATM    1  C1  31G B 401      28.373  -6.551  15.237  1.00 81.96     0.002 A 
HETATM    2  C2  31G B 401      28.514  -5.795  14.087  1.00 79.63     0.009 A 
HETATM    3  C3  31G B 401      28.009  -4.504  14.008  1.00 77.68    -0.033 A 
HETATM    4  C4  31G B 401      27.441  -3.939  15.148  1.00 86.10     0.033 A 
HETATM    5  C5  31G B 401      27.324  -4.689  16.311  1.00 93.12     0.075 A 
HETATM    6  C6  31G B 401      27.770  -6.007  16.358  1.00 87.75     0.024 A 
ENDROOT
BRANCH   3   7
HETATM    7  C7  31G B 401      28.009  -3.810  12.671  1.00 65.67     0.214 C 
BRANCH   7   8
HETATM    8  O3  31G B 401      26.891  -3.911  11.761  1.00 53.78    -0.346 OA
BRANCH   8   9
HETATM    9  C8  31G B 401      26.372  -5.090  11.282  1.00 47.27     0.085 C 
HETATM   10  C9  31G B 401      27.033  -6.265  10.975  1.00 42.14     0.038 C 
HETATM   11  C10 31G B 401      26.317  -7.391  10.565  1.00 33.99     0.005 C 
HETATM   12  C11 31G B 401      24.972  -7.340  10.372  1.00 33.71     0.031 C 
HETATM   13  C12 31G B 401      24.282  -6.113  10.510  1.00 39.37     0.066 A 
HETATM   14  C13 31G B 401      24.976  -4.951  10.992  1.00 44.07     0.069 A 
HETATM   15  N2  31G B 401      23.004  -6.053  10.012  1.00 39.79    -0.191 N 
HETATM   16  C14 31G B 401      24.156  -3.711  10.896  1.00 43.60     0.130 A 
HETATM   17  N1  31G B 401      22.917  -3.676  10.406  1.00 41.12    -0.176 N 
HETATM   18  C15 31G B 401      22.394  -4.840   9.960  1.00 40.11     0.677 A 
HETATM   19  H1  31G B 401      22.386  -2.806  10.369  1.00  0.00     0.186 HD
HETATM   20  H2  31G B 401      22.526  -6.895   9.689  1.00  0.00     0.184 HD
BRANCH  16  21
HETATM   21  N4  31G B 401      24.644  -2.533  11.320  1.00 45.29    -0.384 N 
HETATM   22  H12 31G B 401      24.635  -1.704  10.735  0.00 45.23     0.157 HD
HETATM   23  H13 31G B 401      24.961  -2.412  12.276  0.00 45.23     0.157 HD
ENDBRANCH  16  21
BRANCH  18  24
HETATM   24  N3  31G B 401      21.193  -4.770   9.373  1.00 39.21    -0.234 N 
HETATM   25  H11 31G B 401      20.667  -3.903   9.358  0.00 39.23     0.174 HD
HETATM   26  H10 31G B 401      20.745  -5.592   8.982  0.00 39.23     0.174 HD
ENDBRANCH  18  24
ENDBRANCH   8   9
ENDBRANCH   7   8
ENDBRANCH   3   7
BRANCH   5  27
HETATM   27  S1  31G B 401      26.581  -3.954  17.718  1.00101.94     0.286 S 
HETATM   28  O1  31G B 401      25.242  -4.390  17.811  1.00104.04    -0.206 OA
HETATM   29  O2  31G B 401      27.403  -4.028  18.864  1.00104.12    -0.206 OA
ENDBRANCH   5  27
TORSDOF 6
ENDMDL
MODEL 17
REMARK VINA RESULT:      -6.0      4.822      6.581
REMARK  6 active torsions:
REMARK  status: ('A' for Active; 'I' for Inactive)
REMARK    1  A    between atoms: C3_5  and  C7_14 
REMARK    2  A    between atoms: C5_8  and  S1_11 
REMARK    3  A    between atoms: C7_14  and  O3_17 
REMARK    4  A    between atoms: O3_17  and  C8_18 
REMARK    5  A    between atoms: C14_27  and  N4_34 
REMARK    6  A    between atoms: C15_30  and  N3_33 
ROOT
HETATM    1  C1  31G B 401      25.630  -7.201  10.568  1.00 81.96     0.002 A 
HETATM    2  C2  31G B 401      26.099  -6.030  11.137  1.00 79.63     0.009 A 
HETATM    3  C3  31G B 401      25.322  -4.880  11.161  1.00 77.68    -0.033 A 
HETATM    4  C4  31G B 401      24.013  -4.949  10.690  1.00 86.10     0.033 A 
HETATM    5  C5  31G B 401      23.533  -6.132  10.143  1.00 93.12     0.075 A 
HETATM    6  C6  31G B 401      24.345  -7.260  10.059  1.00 87.75     0.024 A 
ENDROOT
BRANCH   3   7
HETATM    7  C7  31G B 401      25.959  -3.587  11.603  1.00 65.67     0.214 C 
BRANCH   7   8
HETATM    8  O3  31G B 401      26.809  -3.519  12.769  1.00 53.78    -0.346 OA
BRANCH   8   9
HETATM    9  C8  31G B 401      26.361  -3.501  14.069  1.00 47.27     0.085 C 
HETATM   10  C9  31G B 401      25.394  -2.694  14.639  1.00 42.14     0.038 C 
HETATM   11  C10 31G B 401      25.021  -2.875  15.972  1.00 33.99     0.005 C 
HETATM   12  C11 31G B 401      25.652  -3.781  16.765  1.00 33.71     0.031 C 
HETATM   13  C12 31G B 401      26.761  -4.507  16.269  1.00 39.37     0.066 A 
HETATM   14  C13 31G B 401      27.131  -4.391  14.885  1.00 44.07     0.069 A 
HETATM   15  N2  31G B 401      27.540  -5.167  17.187  1.00 39.79    -0.191 N 
HETATM   16  C14 31G B 401      28.422  -5.068  14.578  1.00 43.60     0.130 A 
HETATM   17  N1  31G B 401      29.164  -5.701  15.486  1.00 41.12    -0.176 N 
HETATM   18  C15 31G B 401      28.711  -5.708  16.760  1.00 40.11     0.677 A 
HETATM   19  H1  31G B 401      30.037  -6.161  15.230  1.00  0.00     0.186 HD
HETATM   20  H2  31G B 401      27.248  -5.248  18.161  1.00  0.00     0.184 HD
BRANCH  16  21
HETATM   21  N4  31G B 401      28.911  -5.074  13.325  1.00 45.29    -0.384 N 
HETATM   22  H12 31G B 401      28.715  -5.828  12.675  0.00 45.23     0.157 HD
HETATM   23  H13 31G B 401      29.424  -4.279  12.961  0.00 45.23     0.157 HD
ENDBRANCH  16  21
BRANCH  18  24
HETATM   24  N3  31G B 401      29.518  -6.254  17.678  1.00 39.21    -0.234 N 
HETATM   25  H11 31G B 401      30.476  -6.500  17.454  0.00 39.23     0.174 HD
HETATM   26  H10 31G B 401      29.180  -6.496  18.604  0.00 39.23     0.174 HD
ENDBRANCH  18  24
ENDBRANCH   8   9
ENDBRANCH   7   8
ENDBRANCH   3   7
BRANCH   5  27
HETATM   27  S1  31G B 401      21.889  -6.175   9.536  1.00101.94     0.286 S 
HETATM   28  O1  31G B 401      21.281  -4.923   9.767  1.00104.04    -0.206 OA
HETATM   29  O2  31G B 401      21.804  -6.747   8.247  1.00104.12    -0.206 OA
ENDBRANCH   5  27
TORSDOF 6
ENDMDL
MODEL 18
REMARK VINA RESULT:      -6.0      5.008      7.231
REMARK  6 active torsions:
REMARK  status: ('A' for Active; 'I' for Inactive)
REMARK    1  A    between atoms: C3_5  and  C7_14 
REMARK    2  A    between atoms: C5_8  and  S1_11 
REMARK    3  A    between atoms: C7_14  and  O3_17 
REMARK    4  A    between atoms: O3_17  and  C8_18 
REMARK    5  A    between atoms: C14_27  and  N4_34 
REMARK    6  A    between atoms: C15_30  and  N3_33 
ROOT
HETATM    1  C1  31G B 401      23.521  -3.295  10.823  1.00 81.96     0.002 A 
HETATM    2  C2  31G B 401      24.759  -2.781  11.168  1.00 79.63     0.009 A 
HETATM    3  C3  31G B 401      25.872  -3.602  11.283  1.00 77.68    -0.033 A 
HETATM    4  C4  31G B 401      25.746  -4.948  10.946  1.00 86.10     0.033 A 
HETATM    5  C5  31G B 401      24.509  -5.458  10.574  1.00 93.12     0.075 A 
HETATM    6  C6  31G B 401      23.383  -4.640  10.530  1.00 87.75     0.024 A 
ENDROOT
BRANCH   3   7
HETATM    7  C7  31G B 401      27.139  -3.025  11.860  1.00 65.67     0.214 C 
BRANCH   7   8
HETATM    8  O3  31G B 401      27.387  -1.601  11.875  1.00 53.78    -0.346 OA
BRANCH   8   9
HETATM    9  C8  31G B 401      27.947  -0.890  10.840  1.00 47.27     0.085 C 
HETATM   10  C9  31G B 401      28.716  -1.354   9.788  1.00 42.14     0.038 C 
HETATM   11  C10 31G B 401      29.138  -0.480   8.785  1.00 33.99     0.005 C 
HETATM   12  C11 31G B 401      28.885   0.854   8.858  1.00 33.71     0.031 C 
HETATM   13  C12 31G B 401      28.251   1.394  10.002  1.00 39.37     0.066 A 
HETATM   14  C13 31G B 401      27.747   0.516  11.022  1.00 44.07     0.069 A 
HETATM   15  N2  31G B 401      28.297   2.756  10.160  1.00 39.79    -0.191 N 
HETATM   16  C14 31G B 401      27.284   1.250  12.233  1.00 43.60     0.130 A 
HETATM   17  N1  31G B 401      27.342   2.574  12.366  1.00 41.12    -0.176 N 
HETATM   18  C15 31G B 401      27.867   3.279  11.338  1.00 40.11     0.677 A 
HETATM   19  H1  31G B 401      27.003   3.038  13.209  1.00  0.00     0.186 HD
HETATM   20  H2  31G B 401      28.646   3.360   9.415  1.00  0.00     0.184 HD
BRANCH  16  21
HETATM   21  N4  31G B 401      26.766   0.585  13.280  1.00 45.29    -0.384 N 
HETATM   22  H12 31G B 401      27.350   0.185  14.006  0.00 45.23     0.157 HD
HETATM   23  H13 31G B 401      25.763   0.537  13.423  0.00 45.23     0.157 HD
ENDBRANCH  16  21
BRANCH  18  24
HETATM   24  N3  31G B 401      28.016   4.594  11.529  1.00 39.21    -0.234 N 
HETATM   25  H11 31G B 401      28.815   5.092  11.154  0.00 39.23     0.174 HD
HETATM   26  H10 31G B 401      27.369   5.123  12.108  0.00 39.23     0.174 HD
ENDBRANCH  18  24
ENDBRANCH   8   9
ENDBRANCH   7   8
ENDBRANCH   3   7
BRANCH   5  27
HETATM   27  S1  31G B 401      24.382  -7.162  10.181  1.00101.94     0.286 S 
HETATM   28  O1  31G B 401      23.323  -7.345   9.266  1.00104.04    -0.206 OA
HETATM   29  O2  31G B 401      25.637  -7.746   9.897  1.00104.12    -0.206 OA
ENDBRANCH   5  27
TORSDOF 6
ENDMDL
MODEL 19
REMARK VINA RESULT:      -5.9      4.707      6.531
REMARK  6 active torsions:
REMARK  status: ('A' for Active; 'I' for Inactive)
REMARK    1  A    between atoms: C3_5  and  C7_14 
REMARK    2  A    between atoms: C5_8  and  S1_11 
REMARK    3  A    between atoms: C7_14  and  O3_17 
REMARK    4  A    between atoms: O3_17  and  C8_18 
REMARK    5  A    between atoms: C14_27  and  N4_34 
REMARK    6  A    between atoms: C15_30  and  N3_33 
ROOT
HETATM    1  C1  31G B 401      23.656  -3.200  10.807  1.00 81.96     0.002 A 
HETATM    2  C2  31G B 401      24.873  -2.612  11.103  1.00 79.63     0.009 A 
HETATM    3  C3  31G B 401      26.028  -3.372  11.230  1.00 77.68    -0.033 A 
HETATM    4  C4  31G B 401      25.963  -4.736  10.952  1.00 86.10     0.033 A 
HETATM    5  C5  31G B 401      24.746  -5.321  10.628  1.00 93.12     0.075 A 
HETATM    6  C6  31G B 401      23.580  -4.562  10.574  1.00 87.75     0.024 A 
ENDROOT
BRANCH   3   7
HETATM    7  C7  31G B 401      27.275  -2.709  11.755  1.00 65.67     0.214 C 
BRANCH   7   8
HETATM    8  O3  31G B 401      28.413  -2.447  10.903  1.00 53.78    -0.346 OA
BRANCH   8   9
HETATM    9  C8  31G B 401      28.535  -1.364  10.066  1.00 47.27     0.085 C 
HETATM   10  C9  31G B 401      28.238  -0.037  10.319  1.00 42.14     0.038 C 
HETATM   11  C10 31G B 401      28.500   0.940   9.357  1.00 33.99     0.005 C 
HETATM   12  C11 31G B 401      28.966   0.609   8.123  1.00 33.71     0.031 C 
HETATM   13  C12 31G B 401      29.120  -0.751   7.765  1.00 39.37     0.066 A 
HETATM   14  C13 31G B 401      28.921  -1.778   8.751  1.00 44.07     0.069 A 
HETATM   15  N2  31G B 401      29.294  -1.033   6.433  1.00 39.79    -0.191 N 
HETATM   16  C14 31G B 401      28.938  -3.147   8.164  1.00 43.60     0.130 A 
HETATM   17  N1  31G B 401      29.106  -3.397   6.866  1.00 41.12    -0.176 N 
HETATM   18  C15 31G B 401      29.254  -2.334   6.043  1.00 40.11     0.677 A 
HETATM   19  H1  31G B 401      29.121  -4.352   6.507  1.00  0.00     0.186 HD
HETATM   20  H2  31G B 401      29.449  -0.287   5.755  1.00  0.00     0.184 HD
BRANCH  16  21
HETATM   21  N4  31G B 401      28.784  -4.229   8.946  1.00 45.29    -0.384 N 
HETATM   22  H12 31G B 401      28.656  -5.159   8.560  0.00 45.23     0.157 HD
HETATM   23  H13 31G B 401      28.878  -4.163   9.954  0.00 45.23     0.157 HD
ENDBRANCH  16  21
BRANCH  18  24
HETATM   24  N3  31G B 401      29.313  -2.596   4.733  1.00 39.21    -0.234 N 
HETATM   25  H11 31G B 401      29.534  -3.525   4.393  0.00 39.23     0.174 HD
HETATM   26  H10 31G B 401      29.202  -1.862   4.040  0.00 39.23     0.174 HD
ENDBRANCH  18  24
ENDBRANCH   8   9
ENDBRANCH   7   8
ENDBRANCH   3   7
BRANCH   5  27
HETATM   27  S1  31G B 401      24.696  -7.045  10.311  1.00101.94     0.286 S 
HETATM   28  O1  31G B 401      23.583  -7.329   9.491  1.00104.04    -0.206 OA
HETATM   29  O2  31G B 401      25.959  -7.564   9.949  1.00104.12    -0.206 OA
ENDBRANCH   5  27
TORSDOF 6
ENDMDL
MODEL 20
REMARK VINA RESULT:      -5.9      3.885      7.772
REMARK  6 active torsions:
REMARK  status: ('A' for Active; 'I' for Inactive)
REMARK    1  A    between atoms: C3_5  and  C7_14 
REMARK    2  A    between atoms: C5_8  and  S1_11 
REMARK    3  A    between atoms: C7_14  and  O3_17 
REMARK    4  A    between atoms: O3_17  and  C8_18 
REMARK    5  A    between atoms: C14_27  and  N4_34 
REMARK    6  A    between atoms: C15_30  and  N3_33 
ROOT
HETATM    1  C1  31G B 401      23.141  -6.673   9.772  1.00 81.96     0.002 A 
HETATM    2  C2  31G B 401      24.189  -7.570   9.885  1.00 79.63     0.009 A 
HETATM    3  C3  31G B 401      25.417  -7.181  10.401  1.00 77.68    -0.033 A 
HETATM    4  C4  31G B 401      25.550  -5.888  10.904  1.00 86.10     0.033 A 
HETATM    5  C5  31G B 401      24.489  -4.996  10.815  1.00 93.12     0.075 A 
HETATM    6  C6  31G B 401      23.284  -5.375  10.230  1.00 87.75     0.024 A 
ENDROOT
BRANCH   3   7
HETATM    7  C7  31G B 401      26.576  -8.138  10.308  1.00 65.67     0.214 C 
BRANCH   7   8
HETATM    8  O3  31G B 401      27.797  -7.930  11.053  1.00 53.78    -0.346 OA
BRANCH   8   9
HETATM    9  C8  31G B 401      28.747  -8.895  11.291  1.00 47.27     0.085 C 
HETATM   10  C9  31G B 401      29.134  -9.946  10.480  1.00 42.14     0.038 C 
HETATM   11  C10 31G B 401      30.178 -10.788  10.869  1.00 33.99     0.005 C 
HETATM   12  C11 31G B 401      30.779 -10.655  12.081  1.00 33.71     0.031 C 
HETATM   13  C12 31G B 401      30.297  -9.702  13.010  1.00 39.37     0.066 A 
HETATM   14  C13 31G B 401      29.268  -8.778  12.620  1.00 44.07     0.069 A 
HETATM   15  N2  31G B 401      30.729  -9.818  14.308  1.00 39.79    -0.191 N 
HETATM   16  C14 31G B 401      28.751  -7.978  13.765  1.00 43.60     0.130 A 
HETATM   17  N1  31G B 401      29.183  -8.109  15.018  1.00 41.12    -0.176 N 
HETATM   18  C15 31G B 401      30.137  -9.039  15.251  1.00 40.11     0.677 A 
HETATM   19  H1  31G B 401      28.809  -7.532  15.772  1.00  0.00     0.186 HD
HETATM   20  H2  31G B 401      31.472 -10.471  14.558  1.00  0.00     0.184 HD
BRANCH  16  21
HETATM   21  N4  31G B 401      27.796  -7.051  13.576  1.00 45.29    -0.384 N 
HETATM   22  H12 31G B 401      26.916  -7.075  14.081  0.00 45.23     0.157 HD
HETATM   23  H13 31G B 401      27.960  -6.245  12.984  0.00 45.23     0.157 HD
ENDBRANCH  16  21
BRANCH  18  24
HETATM   24  N3  31G B 401      30.483  -9.233  16.529  1.00 39.21    -0.234 N 
HETATM   25  H11 31G B 401      30.925  -8.499  17.070  0.00 39.23     0.174 HD
HETATM   26  H10 31G B 401      30.373 -10.138  16.976  0.00 39.23     0.174 HD
ENDBRANCH  18  24
ENDBRANCH   8   9
ENDBRANCH   7   8
ENDBRANCH   3   7
BRANCH   5  27
HETATM   27  S1  31G B 401      24.700  -3.369  11.434  1.00101.94     0.286 S 
HETATM   28  O1  31G B 401      23.890  -2.486  10.689  1.00104.04    -0.206 OA
HETATM   29  O2  31G B 401      24.649  -3.316  12.845  1.00104.12    -0.206 OA
ENDBRANCH   5  27
TORSDOF 6
ENDMDL
