MODEL 1
REMARK VINA RESULT:      -7.4      0.000      0.000
REMARK  17 active torsions:
REMARK  status: ('A' for Active; 'I' for Inactive)
REMARK    1  A    between atoms: C01_1  and  C23_41 
REMARK    2  A    between atoms: C07_12  and  C13_24 
REMARK    3  A    between atoms: C13_24  and  O14_27 
REMARK    4  A    between atoms: O14_27  and  C15_28 
REMARK    5  A    between atoms: C15_28  and  C16_30 
REMARK    6  A    between atoms: C15_28  and  C26_48 
REMARK    7  A    between atoms: C16_30  and  C17_32 
REMARK    8  A    between atoms: C16_30  and  O25_46 
REMARK    9  A    between atoms: C17_32  and  C18_34 
REMARK   10  A    between atoms: C17_32  and  O24_44 
REMARK   11  A    between atoms: C18_34  and  C19_36 
REMARK   12  A    between atoms: C18_34  and  O22_40 
REMARK       I    between atoms: C19_36  and  N21_38 
REMARK   13  A    between atoms: N21_38  and  C39_75 
REMARK   14  A    between atoms: O22_40  and  C23_41 
REMARK       I    between atoms: C26_48  and  N28_50 
REMARK   15  A    between atoms: N28_50  and  C29_52 
REMARK   16  A    between atoms: C35_65  and  O36_67 
REMARK   17  A    between atoms: C45_88  and  O46_90 
ROOT
HETATM    1  C01 BE5 A 501      31.781  -1.352   6.699  1.00 24.49     0.003 A 
HETATM    2  C02 BE5 A 501      31.947  -0.298   7.718  1.00 24.30    -0.014 A 
HETATM    3  C03 BE5 A 501      31.378   1.027   7.560  1.00 26.88     0.035 A 
HETATM    4  C04 BE5 A 501      30.601   1.366   6.357  1.00 26.55     0.077 A 
HETATM    5  C05 BE5 A 501      30.411   0.334   5.313  1.00 25.99     0.133 A 
HETATM    6  C06 BE5 A 501      30.990  -0.992   5.485  1.00 25.99     0.158 A 
HETATM    7  F50 BE5 A 501      29.639   0.643   4.104  1.00 29.63    -0.208 F 
HETATM    8  F51 BE5 A 501      30.813  -2.079   4.437  1.00 27.35    -0.203 F 
ENDROOT
BRANCH   1   9
HETATM    9  C23 BE5 A 501      32.429  -2.714   6.987  1.00 23.01     0.210 C 
BRANCH   9  10
HETATM   10  O22 BE5 A 501      31.649  -3.404   8.013  1.00 22.02    -0.369 OA
BRANCH  10  11
HETATM   11  C18 BE5 A 501      30.681  -4.474   7.630  1.00 18.95     0.244 C 
BRANCH  11  12
HETATM   12  C17 BE5 A 501      29.169  -4.035   7.863  1.00 20.08     0.188 C 
BRANCH  12  13
HETATM   13  C16 BE5 A 501      29.082  -3.445   9.193  1.00 20.53     0.188 C 
BRANCH  13  14
HETATM   14  C15 BE5 A 501      27.758  -3.740   9.843  1.00 18.51     0.244 C 
BRANCH  14  15
HETATM   15  O14 BE5 A 501      27.587  -5.215  10.217  1.00 19.29    -0.369 OA
BRANCH  15  16
HETATM   16  C13 BE5 A 501      26.701  -5.603  11.318  1.00 21.08     0.206 C 
BRANCH  16  17
HETATM   17  C07 BE5 A 501      25.282  -5.815  10.804  1.00 21.04    -0.015 A 
HETATM   18  C08 BE5 A 501      24.795  -7.110  10.290  1.00 23.02     0.155 A 
HETATM   19  C09 BE5 A 501      23.385  -7.238   9.814  1.00 21.73     0.132 A 
HETATM   20  F52 BE5 A 501      25.707  -8.286  10.251  1.00 24.30    -0.203 F 
HETATM   21  C10 BE5 A 501      22.478  -6.045   9.860  1.00 24.35     0.073 A 
HETATM   22  F49 BE5 A 501      22.905  -8.519   9.310  1.00 27.68    -0.208 F 
HETATM   23  C11 BE5 A 501      23.014  -4.753  10.388  1.00 23.62     0.011 A 
HETATM   24  C12 BE5 A 501      24.378  -4.666  10.842  1.00 22.67     0.040 A 
ENDBRANCH  16  17
ENDBRANCH  15  16
ENDBRANCH  14  15
BRANCH  14  25
HETATM   25  C26 BE5 A 501      27.712  -2.878  11.040  1.00 16.79     0.250 C 
HETATM   26  O27 BE5 A 501      28.584  -3.009  11.936  1.00 20.11    -0.271 OA
HETATM   27  N28 BE5 A 501      26.724  -1.952  11.144  1.00 15.99    -0.348 N 
HETATM   28  H28 BE5 A 501      26.034  -1.872  10.397  1.00  0.00     0.163 HD
BRANCH  27  29
HETATM   29  C29 BE5 A 501      26.629  -1.077  12.294  1.00 16.00     0.143 C 
HETATM   30  C30 BE5 A 501      27.042   0.308  11.910  1.00 16.23    -0.052 A 
HETATM   31  C31 BE5 A 501      26.293   1.283  12.707  1.00 17.03    -0.073 A 
HETATM   32  C32 BE5 A 501      28.031   0.763  10.903  1.00 16.86     0.036 A 
HETATM   33  C37 BE5 A 501      26.498   2.731  12.533  1.00 17.71     0.034 A 
HETATM   34  C38 BE5 A 501      25.385   0.559  13.624  1.00 16.65     0.068 C 
HETATM   35  C34 BE5 A 501      27.480   3.185  11.530  1.00 19.35     0.005 A 
HETATM   36  C33 BE5 A 501      28.251   2.232  10.713  1.00 18.24     0.005 A 
HETATM   37  C35 BE5 A 501      25.214  -0.792  12.866  1.00 16.83     0.149 C 
BRANCH  37  38
HETATM   38  O36 BE5 A 501      24.305  -0.737  11.740  1.00 14.03    -0.393 OA
HETATM   39  H36 BE5 A 501      24.591  -1.397  11.119  1.00  0.00     0.210 HD
ENDBRANCH  37  38
ENDBRANCH  27  29
ENDBRANCH  14  25
ENDBRANCH  13  14
BRANCH  13  40
HETATM   40  O25 BE5 A 501      29.207  -1.969   9.075  1.00 21.98    -0.390 OA
HETATM   41  H25 BE5 A 501      28.993  -1.733   8.180  1.00  0.00     0.210 HD
ENDBRANCH  13  40
ENDBRANCH  12  13
BRANCH  12  42
HETATM   42  O24 BE5 A 501      28.756  -3.052   6.877  1.00 17.11    -0.390 OA
HETATM   43  H24 BE5 A 501      29.478  -2.881   6.284  1.00  0.00     0.210 HD
ENDBRANCH  12  42
ENDBRANCH  11  12
BRANCH  11  44
HETATM   44  C19 BE5 A 501      31.026  -5.740   8.397  1.00 17.37     0.250 C 
HETATM   45  O20 BE5 A 501      32.219  -6.030   8.664  1.00 18.21    -0.271 OA
HETATM   46  N21 BE5 A 501      29.998  -6.561   8.763  1.00 14.53    -0.348 N 
HETATM   47  H21 BE5 A 501      29.048  -6.285   8.517  1.00  0.00     0.163 HD
BRANCH  46  48
HETATM   48  C39 BE5 A 501      30.187  -7.800   9.480  1.00 14.05     0.143 C 
HETATM   49  C40 BE5 A 501      29.944  -7.636  10.974  1.00 15.79    -0.052 A 
HETATM   50  C41 BE5 A 501      29.238  -8.797  11.487  1.00 16.99    -0.073 A 
HETATM   51  C42 BE5 A 501      30.307  -6.529  11.874  1.00 16.33     0.036 A 
HETATM   52  C47 BE5 A 501      28.862  -8.912  12.911  1.00 17.22     0.034 A 
HETATM   53  C48 BE5 A 501      29.005  -9.751  10.354  1.00 15.28     0.068 C 
HETATM   54  C44 BE5 A 501      29.227  -7.806  13.799  1.00 17.66     0.005 A 
HETATM   55  C43 BE5 A 501      29.939  -6.618  13.320  1.00 18.87     0.005 A 
HETATM   56  C45 BE5 A 501      29.114  -8.857   9.106  1.00 13.23     0.149 C 
BRANCH  56  57
HETATM   57  O46 BE5 A 501      27.889  -8.148   8.788  1.00 13.13    -0.393 OA
HETATM   58  H46 BE5 A 501      27.684  -7.583   9.524  1.00  0.00     0.210 HD
ENDBRANCH  56  57
ENDBRANCH  46  48
ENDBRANCH  11  44
ENDBRANCH  10  11
ENDBRANCH   9  10
ENDBRANCH   1   9
TORSDOF 17
ENDMDL
MODEL 2
REMARK VINA RESULT:      -7.4      0.776      8.915
REMARK  17 active torsions:
REMARK  status: ('A' for Active; 'I' for Inactive)
REMARK    1  A    between atoms: C01_1  and  C23_41 
REMARK    2  A    between atoms: C07_12  and  C13_24 
REMARK    3  A    between atoms: C13_24  and  O14_27 
REMARK    4  A    between atoms: O14_27  and  C15_28 
REMARK    5  A    between atoms: C15_28  and  C16_30 
REMARK    6  A    between atoms: C15_28  and  C26_48 
REMARK    7  A    between atoms: C16_30  and  C17_32 
REMARK    8  A    between atoms: C16_30  and  O25_46 
REMARK    9  A    between atoms: C17_32  and  C18_34 
REMARK   10  A    between atoms: C17_32  and  O24_44 
REMARK   11  A    between atoms: C18_34  and  C19_36 
REMARK   12  A    between atoms: C18_34  and  O22_40 
REMARK       I    between atoms: C19_36  and  N21_38 
REMARK   13  A    between atoms: N21_38  and  C39_75 
REMARK   14  A    between atoms: O22_40  and  C23_41 
REMARK       I    between atoms: C26_48  and  N28_50 
REMARK   15  A    between atoms: N28_50  and  C29_52 
REMARK   16  A    between atoms: C35_65  and  O36_67 
REMARK   17  A    between atoms: C45_88  and  O46_90 
ROOT
HETATM    1  C01 BE5 A 501      25.358  -5.611  10.788  1.00 24.49     0.003 A 
HETATM    2  C02 BE5 A 501      24.342  -4.542  10.808  1.00 24.30    -0.014 A 
HETATM    3  C03 BE5 A 501      22.974  -4.766  10.383  1.00 26.88     0.035 A 
HETATM    4  C04 BE5 A 501      22.548  -6.093   9.912  1.00 26.55     0.077 A 
HETATM    5  C05 BE5 A 501      23.537  -7.193   9.879  1.00 25.99     0.133 A 
HETATM    6  C06 BE5 A 501      24.909  -6.952  10.308  1.00 25.99     0.158 A 
HETATM    7  F50 BE5 A 501      23.140  -8.528   9.417  1.00 29.63    -0.208 F 
HETATM    8  F51 BE5 A 501      25.953  -8.057  10.293  1.00 27.35    -0.203 F 
ENDROOT
BRANCH   1   9
HETATM    9  C23 BE5 A 501      26.771  -5.247  11.267  1.00 23.01     0.210 C 
BRANCH   9  10
HETATM   10  O22 BE5 A 501      27.576  -4.850  10.113  1.00 22.02    -0.369 OA
BRANCH  10  11
HETATM   11  C18 BE5 A 501      27.582  -3.430   9.652  1.00 18.95     0.244 C 
BRANCH  11  12
HETATM   12  C17 BE5 A 501      28.689  -3.159   8.541  1.00 20.08     0.188 C 
BRANCH  12  13
HETATM   13  C16 BE5 A 501      29.348  -4.427   8.258  1.00 20.53     0.188 C 
BRANCH  13  14
HETATM   14  C15 BE5 A 501      30.840  -4.321   8.414  1.00 18.51     0.244 C 
BRANCH  14  15
HETATM   15  O14 BE5 A 501      31.276  -3.087   9.209  1.00 19.29    -0.369 OA
BRANCH  15  16
HETATM   16  C13 BE5 A 501      32.271  -2.163   8.659  1.00 21.08     0.206 C 
BRANCH  16  17
HETATM   17  C07 BE5 A 501      31.584  -0.941   8.062  1.00 21.04    -0.015 A 
HETATM   18  C08 BE5 A 501      30.967  -0.936   6.721  1.00 23.02     0.155 A 
HETATM   19  C09 BE5 A 501      30.304   0.302   6.212  1.00 21.73     0.132 A 
HETATM   20  F52 BE5 A 501      31.003  -2.164   5.881  1.00 24.30    -0.203 F 
HETATM   21  C10 BE5 A 501      30.275   1.532   7.070  1.00 24.35     0.073 A 
HETATM   22  F49 BE5 A 501      29.692   0.304   4.889  1.00 27.68    -0.208 F 
HETATM   23  C11 BE5 A 501      30.913   1.481   8.421  1.00 23.62     0.011 A 
HETATM   24  C12 BE5 A 501      31.541   0.270   8.881  1.00 22.67     0.040 A 
ENDBRANCH  16  17
ENDBRANCH  15  16
ENDBRANCH  14  15
BRANCH  14  25
HETATM   25  C26 BE5 A 501      31.250  -5.565   9.095  1.00 16.79     0.250 C 
HETATM   26  O27 BE5 A 501      32.450  -5.723   9.436  1.00 20.11    -0.271 OA
HETATM   27  N28 BE5 A 501      30.313  -6.515   9.346  1.00 15.99    -0.348 N 
HETATM   28  H28 BE5 A 501      29.348  -6.352   9.058  1.00  0.00     0.163 HD
BRANCH  27  29
HETATM   29  C29 BE5 A 501      30.654  -7.754  10.013  1.00 16.00     0.143 C 
HETATM   30  C30 BE5 A 501      30.053  -7.773  11.382  1.00 16.23    -0.052 A 
HETATM   31  C31 BE5 A 501      29.720  -9.150  11.753  1.00 17.03    -0.073 A 
HETATM   32  C32 BE5 A 501      29.778  -6.656  12.318  1.00 16.86     0.036 A 
HETATM   33  C37 BE5 A 501      29.107  -9.465  13.056  1.00 17.71     0.034 A 
HETATM   34  C38 BE5 A 501      30.098 -10.052  10.643  1.00 16.65     0.068 C 
HETATM   35  C34 BE5 A 501      28.831  -8.354  13.987  1.00 19.35     0.005 A 
HETATM   36  C33 BE5 A 501      29.154  -6.957  13.645  1.00 18.24     0.005 A 
HETATM   37  C35 BE5 A 501      30.063  -9.068   9.436  1.00 16.83     0.149 C 
BRANCH  37  38
HETATM   38  O36 BE5 A 501      28.733  -8.759   8.953  1.00 14.03    -0.393 OA
HETATM   39  H36 BE5 A 501      28.439  -7.988   9.425  1.00  0.00     0.210 HD
ENDBRANCH  37  38
ENDBRANCH  27  29
ENDBRANCH  14  25
ENDBRANCH  13  14
BRANCH  13  40
HETATM   40  O25 BE5 A 501      29.069  -4.812   6.849  1.00 21.98    -0.390 OA
HETATM   41  H25 BE5 A 501      28.397  -5.483   6.862  1.00  0.00     0.210 HD
ENDBRANCH  13  40
ENDBRANCH  12  13
BRANCH  12  42
HETATM   42  O24 BE5 A 501      28.086  -2.651   7.320  1.00 17.11    -0.390 OA
HETATM   43  H24 BE5 A 501      27.586  -1.869   7.521  1.00  0.00     0.210 HD
ENDBRANCH  12  42
ENDBRANCH  11  12
BRANCH  11  44
HETATM   44  C19 BE5 A 501      27.762  -2.526  10.861  1.00 17.37     0.250 C 
HETATM   45  O20 BE5 A 501      28.833  -2.531  11.519  1.00 18.21    -0.271 OA
HETATM   46  N21 BE5 A 501      26.714  -1.728  11.219  1.00 14.53    -0.348 N 
HETATM   47  H21 BE5 A 501      25.864  -1.765  10.656  1.00  0.00     0.163 HD
BRANCH  46  48
HETATM   48  C39 BE5 A 501      26.745  -0.836  12.353  1.00 14.05     0.143 C 
HETATM   49  C40 BE5 A 501      27.140   0.580  11.952  1.00 15.79    -0.052 A 
HETATM   50  C41 BE5 A 501      26.341   1.541  12.694  1.00 16.99    -0.073 A 
HETATM   51  C42 BE5 A 501      28.144   1.041  10.982  1.00 16.33     0.036 A 
HETATM   52  C47 BE5 A 501      26.503   2.996  12.506  1.00 17.22     0.034 A 
HETATM   53  C48 BE5 A 501      25.411   0.788  13.599  1.00 15.28     0.068 C 
HETATM   54  C44 BE5 A 501      27.505   3.447  11.538  1.00 17.66     0.005 A 
HETATM   55  C43 BE5 A 501      28.331   2.509  10.770  1.00 18.87     0.005 A 
HETATM   56  C45 BE5 A 501      25.332  -0.605  12.951  1.00 13.23     0.149 C 
BRANCH  56  57
HETATM   57  O46 BE5 A 501      24.374  -0.689  11.864  1.00 13.13    -0.393 OA
HETATM   58  H46 BE5 A 501      24.864  -0.774  11.055  1.00  0.00     0.210 HD
ENDBRANCH  56  57
ENDBRANCH  46  48
ENDBRANCH  11  44
ENDBRANCH  10  11
ENDBRANCH   9  10
ENDBRANCH   1   9
TORSDOF 17
ENDMDL
MODEL 3
REMARK VINA RESULT:      -7.2      2.029      6.458
REMARK  17 active torsions:
REMARK  status: ('A' for Active; 'I' for Inactive)
REMARK    1  A    between atoms: C01_1  and  C23_41 
REMARK    2  A    between atoms: C07_12  and  C13_24 
REMARK    3  A    between atoms: C13_24  and  O14_27 
REMARK    4  A    between atoms: O14_27  and  C15_28 
REMARK    5  A    between atoms: C15_28  and  C16_30 
REMARK    6  A    between atoms: C15_28  and  C26_48 
REMARK    7  A    between atoms: C16_30  and  C17_32 
REMARK    8  A    between atoms: C16_30  and  O25_46 
REMARK    9  A    between atoms: C17_32  and  C18_34 
REMARK   10  A    between atoms: C17_32  and  O24_44 
REMARK   11  A    between atoms: C18_34  and  C19_36 
REMARK   12  A    between atoms: C18_34  and  O22_40 
REMARK       I    between atoms: C19_36  and  N21_38 
REMARK   13  A    between atoms: N21_38  and  C39_75 
REMARK   14  A    between atoms: O22_40  and  C23_41 
REMARK       I    between atoms: C26_48  and  N28_50 
REMARK   15  A    between atoms: N28_50  and  C29_52 
REMARK   16  A    between atoms: C35_65  and  O36_67 
REMARK   17  A    between atoms: C45_88  and  O46_90 
ROOT
HETATM    1  C01 BE5 A 501      24.970  -4.625  10.558  1.00 24.49     0.003 A 
HETATM    2  C02 BE5 A 501      23.742  -3.824  10.399  1.00 24.30    -0.014 A 
HETATM    3  C03 BE5 A 501      22.451  -4.431  10.138  1.00 26.88     0.035 A 
HETATM    4  C04 BE5 A 501      22.324  -5.892  10.024  1.00 26.55     0.077 A 
HETATM    5  C05 BE5 A 501      23.533  -6.731  10.180  1.00 25.99     0.133 A 
HETATM    6  C06 BE5 A 501      24.824  -6.107  10.441  1.00 25.99     0.158 A 
HETATM    7  F50 BE5 A 501      23.436  -8.191  10.074  1.00 29.63    -0.208 F 
HETATM    8  F51 BE5 A 501      26.088  -6.934  10.611  1.00 27.35    -0.203 F 
ENDROOT
BRANCH   1   9
HETATM    9  C23 BE5 A 501      26.274  -3.863  10.836  1.00 23.01     0.210 C 
BRANCH   9  10
HETATM   10  O22 BE5 A 501      26.951  -3.601   9.566  1.00 22.02    -0.369 OA
BRANCH  10  11
HETATM   11  C18 BE5 A 501      28.347  -3.072   9.552  1.00 18.95     0.244 C 
BRANCH  11  12
HETATM   12  C17 BE5 A 501      28.803  -2.604   8.102  1.00 20.08     0.188 C 
BRANCH  12  13
HETATM   13  C16 BE5 A 501      30.094  -1.942   8.239  1.00 20.53     0.188 C 
BRANCH  13  14
HETATM   14  C15 BE5 A 501      30.237  -0.802   7.268  1.00 18.51     0.244 C 
BRANCH  14  15
HETATM   15  O14 BE5 A 501      29.753  -1.151   5.857  1.00 19.29    -0.369 OA
BRANCH  15  16
HETATM   16  C13 BE5 A 501      30.703  -1.217   4.744  1.00 21.08     0.206 C 
BRANCH  16  17
HETATM   17  C07 BE5 A 501      30.978  -2.669   4.370  1.00 21.04    -0.015 A 
HETATM   18  C08 BE5 A 501      29.924  -3.601   3.925  1.00 23.02     0.155 A 
HETATM   19  C09 BE5 A 501      30.277  -5.008   3.567  1.00 21.73     0.132 A 
HETATM   20  F52 BE5 A 501      28.512  -3.139   3.831  1.00 24.30    -0.203 F 
HETATM   21  C10 BE5 A 501      31.704  -5.460   3.666  1.00 24.35     0.073 A 
HETATM   22  F49 BE5 A 501      29.235  -5.926   3.124  1.00 27.68    -0.208 F 
HETATM   23  C11 BE5 A 501      32.738  -4.481   4.122  1.00 23.62     0.011 A 
HETATM   24  C12 BE5 A 501      32.363  -3.132   4.456  1.00 22.67     0.040 A 
ENDBRANCH  16  17
ENDBRANCH  15  16
ENDBRANCH  14  15
BRANCH  14  25
HETATM   25  C26 BE5 A 501      29.444   0.302   7.844  1.00 16.79     0.250 C 
HETATM   26  O27 BE5 A 501      28.532   0.836   7.163  1.00 20.11    -0.271 OA
HETATM   27  N28 BE5 A 501      29.715   0.713   9.109  1.00 15.99    -0.348 N 
HETATM   28  H28 BE5 A 501      30.460   0.255   9.634  1.00  0.00     0.163 HD
BRANCH  27  29
HETATM   29  C29 BE5 A 501      28.970   1.790   9.729  1.00 16.00     0.143 C 
HETATM   30  C30 BE5 A 501      28.142   1.250  10.851  1.00 16.23    -0.052 A 
HETATM   31  C31 BE5 A 501      28.010   2.267  11.897  1.00 17.03    -0.073 A 
HETATM   32  C32 BE5 A 501      27.502  -0.079  11.010  1.00 16.86     0.036 A 
HETATM   33  C37 BE5 A 501      27.245   2.003  13.128  1.00 17.71     0.034 A 
HETATM   34  C38 BE5 A 501      28.741   3.484  11.480  1.00 16.65     0.068 C 
HETATM   35  C34 BE5 A 501      26.609   0.681  13.288  1.00 19.35     0.005 A 
HETATM   36  C33 BE5 A 501      26.722  -0.364  12.256  1.00 18.24     0.005 A 
HETATM   37  C35 BE5 A 501      29.775   2.881  10.483  1.00 16.83     0.149 C 
BRANCH  37  38
HETATM   38  O36 BE5 A 501      30.900   2.219  11.113  1.00 14.03    -0.393 OA
HETATM   39  H36 BE5 A 501      30.781   2.302  12.052  1.00  0.00     0.210 HD
ENDBRANCH  37  38
ENDBRANCH  27  29
ENDBRANCH  14  25
ENDBRANCH  13  14
BRANCH  13  40
HETATM   40  O25 BE5 A 501      31.172  -2.922   7.944  1.00 21.98    -0.390 OA
HETATM   41  H25 BE5 A 501      30.942  -3.369   7.138  1.00  0.00     0.210 HD
ENDBRANCH  13  40
ENDBRANCH  12  13
BRANCH  12  42
HETATM   42  O24 BE5 A 501      28.942  -3.741   7.208  1.00 17.11    -0.390 OA
HETATM   43  H24 BE5 A 501      29.840  -4.050   7.234  1.00  0.00     0.210 HD
ENDBRANCH  12  42
ENDBRANCH  11  12
BRANCH  11  44
HETATM   44  C19 BE5 A 501      29.275  -4.133  10.122  1.00 17.37     0.250 C 
HETATM   45  O20 BE5 A 501      30.250  -3.817  10.849  1.00 18.21    -0.271 OA
HETATM   46  N21 BE5 A 501      29.026  -5.435   9.797  1.00 14.53    -0.348 N 
HETATM   47  H21 BE5 A 501      28.226  -5.640   9.198  1.00  0.00     0.163 HD
BRANCH  46  48
HETATM   48  C39 BE5 A 501      29.837  -6.538  10.256  1.00 14.05     0.143 C 
HETATM   49  C40 BE5 A 501      29.334  -7.103  11.578  1.00 15.79    -0.052 A 
HETATM   50  C41 BE5 A 501      29.435  -8.552  11.563  1.00 16.99    -0.073 A 
HETATM   51  C42 BE5 A 501      28.800  -6.407  12.759  1.00 16.33     0.036 A 
HETATM   52  C47 BE5 A 501      29.012  -9.372  12.716  1.00 17.22     0.034 A 
HETATM   53  C48 BE5 A 501      30.008  -8.975  10.244  1.00 15.28     0.068 C 
HETATM   54  C44 BE5 A 501      28.482  -8.672  13.888  1.00 17.66     0.005 A 
HETATM   55  C43 BE5 A 501      28.364  -7.211  13.941  1.00 18.87     0.005 A 
HETATM   56  C45 BE5 A 501      29.717  -7.775   9.326  1.00 13.23     0.149 C 
BRANCH  56  57
HETATM   57  O46 BE5 A 501      28.377  -7.779   8.769  1.00 13.13    -0.393 OA
HETATM   58  H46 BE5 A 501      28.242  -6.943   8.338  1.00  0.00     0.210 HD
ENDBRANCH  56  57
ENDBRANCH  46  48
ENDBRANCH  11  44
ENDBRANCH  10  11
ENDBRANCH   9  10
ENDBRANCH   1   9
TORSDOF 17
ENDMDL
MODEL 4
REMARK VINA RESULT:      -7.1      1.936      3.077
REMARK  17 active torsions:
REMARK  status: ('A' for Active; 'I' for Inactive)
REMARK    1  A    between atoms: C01_1  and  C23_41 
REMARK    2  A    between atoms: C07_12  and  C13_24 
REMARK    3  A    between atoms: C13_24  and  O14_27 
REMARK    4  A    between atoms: O14_27  and  C15_28 
REMARK    5  A    between atoms: C15_28  and  C16_30 
REMARK    6  A    between atoms: C15_28  and  C26_48 
REMARK    7  A    between atoms: C16_30  and  C17_32 
REMARK    8  A    between atoms: C16_30  and  O25_46 
REMARK    9  A    between atoms: C17_32  and  C18_34 
REMARK   10  A    between atoms: C17_32  and  O24_44 
REMARK   11  A    between atoms: C18_34  and  C19_36 
REMARK   12  A    between atoms: C18_34  and  O22_40 
REMARK       I    between atoms: C19_36  and  N21_38 
REMARK   13  A    between atoms: N21_38  and  C39_75 
REMARK   14  A    between atoms: O22_40  and  C23_41 
REMARK       I    between atoms: C26_48  and  N28_50 
REMARK   15  A    between atoms: N28_50  and  C29_52 
REMARK   16  A    between atoms: C35_65  and  O36_67 
REMARK   17  A    between atoms: C45_88  and  O46_90 
ROOT
HETATM    1  C01 BE5 A 501      30.012  -2.861   4.493  1.00 24.49     0.003 A 
HETATM    2  C02 BE5 A 501      29.493  -1.599   5.051  1.00 24.30    -0.014 A 
HETATM    3  C03 BE5 A 501      29.874  -0.303   4.521  1.00 26.88     0.035 A 
HETATM    4  C04 BE5 A 501      30.806  -0.208   3.387  1.00 26.55     0.077 A 
HETATM    5  C05 BE5 A 501      31.347  -1.453   2.797  1.00 25.99     0.133 A 
HETATM    6  C06 BE5 A 501      30.957  -2.746   3.341  1.00 25.99     0.158 A 
HETATM    7  F50 BE5 A 501      32.276  -1.387   1.663  1.00 29.63    -0.208 F 
HETATM    8  F51 BE5 A 501      31.487  -4.047   2.761  1.00 27.35    -0.203 F 
ENDROOT
BRANCH   1   9
HETATM    9  C23 BE5 A 501      29.529  -4.166   5.141  1.00 23.01     0.210 C 
BRANCH   9  10
HETATM   10  O22 BE5 A 501      30.347  -4.442   6.322  1.00 22.02    -0.369 OA
BRANCH  10  11
HETATM   11  C18 BE5 A 501      29.714  -4.540   7.670  1.00 18.95     0.244 C 
BRANCH  11  12
HETATM   12  C17 BE5 A 501      29.757  -3.161   8.462  1.00 20.08     0.188 C 
BRANCH  12  13
HETATM   13  C16 BE5 A 501      29.173  -3.390   9.777  1.00 20.53     0.188 C 
BRANCH  13  14
HETATM   14  C15 BE5 A 501      28.066  -2.414  10.068  1.00 18.51     0.244 C 
BRANCH  14  15
HETATM   15  O14 BE5 A 501      27.074  -2.927  11.116  1.00 19.29    -0.369 OA
BRANCH  15  16
HETATM   16  C13 BE5 A 501      26.930  -4.364  11.360  1.00 21.08     0.206 C 
BRANCH  16  17
HETATM   17  C07 BE5 A 501      25.551  -4.839  10.917  1.00 21.04    -0.015 A 
HETATM   18  C08 BE5 A 501      25.250  -6.246  10.587  1.00 23.02     0.155 A 
HETATM   19  C09 BE5 A 501      23.869  -6.633  10.170  1.00 21.73     0.132 A 
HETATM   20  F52 BE5 A 501      26.321  -7.276  10.673  1.00 24.30    -0.203 F 
HETATM   21  C10 BE5 A 501      22.800  -5.584  10.088  1.00 24.35     0.073 A 
HETATM   22  F49 BE5 A 501      23.572  -8.023   9.848  1.00 27.68    -0.208 F 
HETATM   23  C11 BE5 A 501      23.151  -4.172  10.431  1.00 23.62     0.011 A 
HETATM   24  C12 BE5 A 501      24.491  -3.835  10.833  1.00 22.67     0.040 A 
ENDBRANCH  16  17
ENDBRANCH  15  16
ENDBRANCH  14  15
BRANCH  14  25
HETATM   25  C26 BE5 A 501      28.742  -1.186  10.531  1.00 16.79     0.250 C 
HETATM   26  O27 BE5 A 501      28.846  -0.958  11.764  1.00 20.11    -0.271 OA
HETATM   27  N28 BE5 A 501      29.246  -0.327   9.608  1.00 15.99    -0.348 N 
HETATM   28  H28 BE5 A 501      29.146  -0.544   8.617  1.00  0.00     0.163 HD
BRANCH  27  29
HETATM   29  C29 BE5 A 501      29.921   0.893  10.002  1.00 16.00     0.143 C 
HETATM   30  C30 BE5 A 501      30.721   1.420   8.855  1.00 16.23    -0.052 A 
HETATM   31  C31 BE5 A 501      30.768   2.883   8.920  1.00 17.03    -0.073 A 
HETATM   32  C32 BE5 A 501      31.406   0.695   7.757  1.00 16.86     0.036 A 
HETATM   33  C37 BE5 A 501      31.491   3.671   7.906  1.00 17.71     0.034 A 
HETATM   34  C38 BE5 A 501      30.008   3.336  10.106  1.00 16.65     0.068 C 
HETATM   35  C34 BE5 A 501      32.171   2.951   6.813  1.00 19.35     0.005 A 
HETATM   36  C33 BE5 A 501      32.144   1.481   6.717  1.00 18.24     0.005 A 
HETATM   37  C35 BE5 A 501      29.042   2.133  10.316  1.00 16.83     0.149 C 
BRANCH  37  38
HETATM   38  O36 BE5 A 501      27.919   2.098   9.402  1.00 14.03    -0.393 OA
HETATM   39  H36 BE5 A 501      27.171   2.455   9.866  1.00  0.00     0.210 HD
ENDBRANCH  37  38
ENDBRANCH  27  29
ENDBRANCH  14  25
ENDBRANCH  13  14
BRANCH  13  40
HETATM   40  O25 BE5 A 501      30.225  -3.200  10.810  1.00 21.98    -0.390 OA
HETATM   41  H25 BE5 A 501      30.793  -3.960  10.786  1.00  0.00     0.210 HD
ENDBRANCH  13  40
ENDBRANCH  12  13
BRANCH  12  42
HETATM   42  O24 BE5 A 501      31.124  -2.695   8.620  1.00 17.11    -0.390 OA
HETATM   43  H24 BE5 A 501      31.719  -3.423   8.484  1.00  0.00     0.210 HD
ENDBRANCH  12  42
ENDBRANCH  11  12
BRANCH  11  44
HETATM   44  C19 BE5 A 501      30.391  -5.658   8.446  1.00 17.37     0.250 C 
HETATM   45  O20 BE5 A 501      31.629  -5.637   8.664  1.00 18.21    -0.271 OA
HETATM   46  N21 BE5 A 501      29.613  -6.695   8.876  1.00 14.53    -0.348 N 
HETATM   47  H21 BE5 A 501      28.615  -6.668   8.668  1.00  0.00     0.163 HD
BRANCH  46  48
HETATM   48  C39 BE5 A 501      30.130  -7.826   9.608  1.00 14.05     0.143 C 
HETATM   49  C40 BE5 A 501      29.733  -7.782  11.078  1.00 15.79    -0.052 A 
HETATM   50  C41 BE5 A 501      29.395  -9.120  11.536  1.00 16.99    -0.073 A 
HETATM   51  C42 BE5 A 501      29.654  -6.639  12.001  1.00 16.33     0.036 A 
HETATM   52  C47 BE5 A 501      28.966  -9.380  12.924  1.00 17.22     0.034 A 
HETATM   53  C48 BE5 A 501      29.566 -10.071  10.389  1.00 15.28     0.068 C 
HETATM   54  C44 BE5 A 501      28.891  -8.237  13.836  1.00 17.66     0.005 A 
HETATM   55  C43 BE5 A 501      29.223  -6.873  13.413  1.00 18.87     0.005 A 
HETATM   56  C45 BE5 A 501      29.481  -9.160   9.152  1.00 13.23     0.149 C 
BRANCH  56  57
HETATM   57  O46 BE5 A 501      28.122  -8.869   8.735  1.00 13.13    -0.393 OA
HETATM   58  H46 BE5 A 501      28.088  -8.951   7.789  1.00  0.00     0.210 HD
ENDBRANCH  56  57
ENDBRANCH  46  48
ENDBRANCH  11  44
ENDBRANCH  10  11
ENDBRANCH   9  10
ENDBRANCH   1   9
TORSDOF 17
ENDMDL
MODEL 5
REMARK VINA RESULT:      -7.1      2.672      6.825
REMARK  17 active torsions:
REMARK  status: ('A' for Active; 'I' for Inactive)
REMARK    1  A    between atoms: C01_1  and  C23_41 
REMARK    2  A    between atoms: C07_12  and  C13_24 
REMARK    3  A    between atoms: C13_24  and  O14_27 
REMARK    4  A    between atoms: O14_27  and  C15_28 
REMARK    5  A    between atoms: C15_28  and  C16_30 
REMARK    6  A    between atoms: C15_28  and  C26_48 
REMARK    7  A    between atoms: C16_30  and  C17_32 
REMARK    8  A    between atoms: C16_30  and  O25_46 
REMARK    9  A    between atoms: C17_32  and  C18_34 
REMARK   10  A    between atoms: C17_32  and  O24_44 
REMARK   11  A    between atoms: C18_34  and  C19_36 
REMARK   12  A    between atoms: C18_34  and  O22_40 
REMARK       I    between atoms: C19_36  and  N21_38 
REMARK   13  A    between atoms: N21_38  and  C39_75 
REMARK   14  A    between atoms: O22_40  and  C23_41 
REMARK       I    between atoms: C26_48  and  N28_50 
REMARK   15  A    between atoms: N28_50  and  C29_52 
REMARK   16  A    between atoms: C35_65  and  O36_67 
REMARK   17  A    between atoms: C45_88  and  O46_90 
ROOT
HETATM    1  C01 BE5 A 501      29.831  -3.596   6.929  1.00 24.49     0.003 A 
HETATM    2  C02 BE5 A 501      30.692  -4.647   6.356  1.00 24.30    -0.014 A 
HETATM    3  C03 BE5 A 501      31.096  -4.643   4.963  1.00 26.88     0.035 A 
HETATM    4  C04 BE5 A 501      30.653  -3.568   4.062  1.00 26.55     0.077 A 
HETATM    5  C05 BE5 A 501      29.790  -2.493   4.600  1.00 25.99     0.133 A 
HETATM    6  C06 BE5 A 501      29.391  -2.511   6.001  1.00 25.99     0.158 A 
HETATM    7  F50 BE5 A 501      29.335  -1.406   3.725  1.00 29.63    -0.208 F 
HETATM    8  F51 BE5 A 501      28.509  -1.424   6.592  1.00 27.35    -0.203 F 
ENDROOT
BRANCH   1   9
HETATM    9  C23 BE5 A 501      29.478  -3.712   8.419  1.00 23.01     0.210 C 
BRANCH   9  10
HETATM   10  O22 BE5 A 501      30.505  -3.031   9.205  1.00 22.02    -0.369 OA
BRANCH  10  11
HETATM   11  C18 BE5 A 501      30.125  -1.964  10.178  1.00 18.95     0.244 C 
BRANCH  11  12
HETATM   12  C17 BE5 A 501      28.548  -1.791  10.300  1.00 20.08     0.188 C 
BRANCH  12  13
HETATM   13  C16 BE5 A 501      28.193  -1.974  11.702  1.00 20.53     0.188 C 
BRANCH  13  14
HETATM   14  C15 BE5 A 501      26.705  -1.905  11.909  1.00 18.51     0.244 C 
BRANCH  14  15
HETATM   15  O14 BE5 A 501      25.910  -2.570  10.782  1.00 19.29    -0.369 OA
BRANCH  15  16
HETATM   16  C13 BE5 A 501      24.464  -2.769  10.913  1.00 21.08     0.206 C 
BRANCH  16  17
HETATM   17  C07 BE5 A 501      24.096  -4.208  10.570  1.00 21.04    -0.015 A 
HETATM   18  C08 BE5 A 501      25.057  -5.326  10.644  1.00 23.02     0.155 A 
HETATM   19  C09 BE5 A 501      24.614  -6.711  10.301  1.00 21.73     0.132 A 
HETATM   20  F52 BE5 A 501      26.462  -5.073  11.064  1.00 24.30    -0.203 F 
HETATM   21  C10 BE5 A 501      23.194  -6.950   9.881  1.00 24.35     0.073 A 
HETATM   22  F49 BE5 A 501      25.563  -7.815  10.378  1.00 27.68    -0.208 F 
HETATM   23  C11 BE5 A 501      22.257  -5.787   9.819  1.00 23.62     0.011 A 
HETATM   24  C12 BE5 A 501      22.716  -4.466  10.160  1.00 22.67     0.040 A 
ENDBRANCH  16  17
ENDBRANCH  15  16
ENDBRANCH  14  15
BRANCH  14  25
HETATM   25  C26 BE5 A 501      26.460  -2.576  13.201  1.00 16.79     0.250 C 
HETATM   26  O27 BE5 A 501      25.507  -2.197  13.929  1.00 20.11    -0.271 OA
HETATM   27  N28 BE5 A 501      27.272  -3.598  13.574  1.00 15.99    -0.348 N 
HETATM   28  H28 BE5 A 501      28.034  -3.881  12.957  1.00  0.00     0.163 HD
BRANCH  27  29
HETATM   29  C29 BE5 A 501      27.079  -4.296  14.828  1.00 16.00     0.143 C 
HETATM   30  C30 BE5 A 501      27.640  -5.679  14.728  1.00 16.23    -0.052 A 
HETATM   31  C31 BE5 A 501      28.142  -6.100  16.039  1.00 17.03    -0.073 A 
HETATM   32  C32 BE5 A 501      27.740  -6.585  13.559  1.00 16.86     0.036 A 
HETATM   33  C37 BE5 A 501      28.755  -7.426  16.232  1.00 17.71     0.034 A 
HETATM   34  C38 BE5 A 501      27.916  -5.011  17.014  1.00 16.65     0.068 C 
HETATM   35  C34 BE5 A 501      28.857  -8.328  15.069  1.00 19.35     0.005 A 
HETATM   36  C33 BE5 A 501      28.362  -7.935  13.737  1.00 18.24     0.005 A 
HETATM   37  C35 BE5 A 501      27.854  -3.775  16.068  1.00 16.83     0.149 C 
BRANCH  37  38
HETATM   38  O36 BE5 A 501      29.144  -3.313  15.598  1.00 14.03    -0.393 OA
HETATM   39  H36 BE5 A 501      29.604  -2.960  16.351  1.00  0.00     0.210 HD
ENDBRANCH  37  38
ENDBRANCH  27  29
ENDBRANCH  14  25
ENDBRANCH  13  14
BRANCH  13  40
HETATM   40  O25 BE5 A 501      28.811  -0.884  12.502  1.00 21.98    -0.390 OA
HETATM   41  H25 BE5 A 501      28.487  -0.961  13.391  1.00  0.00     0.210 HD
ENDBRANCH  13  40
ENDBRANCH  12  13
BRANCH  12  42
HETATM   42  O24 BE5 A 501      28.136  -0.466   9.873  1.00 17.11    -0.390 OA
HETATM   43  H24 BE5 A 501      28.380   0.167  10.538  1.00  0.00     0.210 HD
ENDBRANCH  12  42
ENDBRANCH  11  12
BRANCH  11  44
HETATM   44  C19 BE5 A 501      30.806  -0.668   9.770  1.00 17.37     0.250 C 
HETATM   45  O20 BE5 A 501      31.228   0.141  10.634  1.00 18.21    -0.271 OA
HETATM   46  N21 BE5 A 501      30.921  -0.404   8.436  1.00 14.53    -0.348 N 
HETATM   47  H21 BE5 A 501      30.558  -1.089   7.774  1.00  0.00     0.163 HD
BRANCH  46  48
HETATM   48  C39 BE5 A 501      31.531   0.796   7.913  1.00 14.05     0.143 C 
HETATM   49  C40 BE5 A 501      31.923   0.643   6.449  1.00 15.79    -0.052 A 
HETATM   50  C41 BE5 A 501      31.633   1.874   5.733  1.00 16.99    -0.073 A 
HETATM   51  C42 BE5 A 501      32.503  -0.509   5.741  1.00 16.33     0.036 A 
HETATM   52  C47 BE5 A 501      31.905   2.015   4.288  1.00 17.22     0.034 A 
HETATM   53  C48 BE5 A 501      31.053   2.862   6.701  1.00 15.28     0.068 C 
HETATM   54  C44 BE5 A 501      32.483   0.864   3.592  1.00 17.66     0.005 A 
HETATM   55  C43 BE5 A 501      32.790  -0.395   4.279  1.00 18.87     0.005 A 
HETATM   56  C45 BE5 A 501      30.527   1.977   7.844  1.00 13.23     0.149 C 
BRANCH  56  57
HETATM   57  O46 BE5 A 501      29.210   1.421   7.591  1.00 13.13    -0.393 OA
HETATM   58  H46 BE5 A 501      28.589   1.897   8.129  1.00  0.00     0.210 HD
ENDBRANCH  56  57
ENDBRANCH  46  48
ENDBRANCH  11  44
ENDBRANCH  10  11
ENDBRANCH   9  10
ENDBRANCH   1   9
TORSDOF 17
ENDMDL
MODEL 6
REMARK VINA RESULT:      -7.1      2.753      7.785
REMARK  17 active torsions:
REMARK  status: ('A' for Active; 'I' for Inactive)
REMARK    1  A    between atoms: C01_1  and  C23_41 
REMARK    2  A    between atoms: C07_12  and  C13_24 
REMARK    3  A    between atoms: C13_24  and  O14_27 
REMARK    4  A    between atoms: O14_27  and  C15_28 
REMARK    5  A    between atoms: C15_28  and  C16_30 
REMARK    6  A    between atoms: C15_28  and  C26_48 
REMARK    7  A    between atoms: C16_30  and  C17_32 
REMARK    8  A    between atoms: C16_30  and  O25_46 
REMARK    9  A    between atoms: C17_32  and  C18_34 
REMARK   10  A    between atoms: C17_32  and  O24_44 
REMARK   11  A    between atoms: C18_34  and  C19_36 
REMARK   12  A    between atoms: C18_34  and  O22_40 
REMARK       I    between atoms: C19_36  and  N21_38 
REMARK   13  A    between atoms: N21_38  and  C39_75 
REMARK   14  A    between atoms: O22_40  and  C23_41 
REMARK       I    between atoms: C26_48  and  N28_50 
REMARK   15  A    between atoms: N28_50  and  C29_52 
REMARK   16  A    between atoms: C35_65  and  O36_67 
REMARK   17  A    between atoms: C45_88  and  O46_90 
ROOT
HETATM    1  C01 BE5 A 501      24.893  -4.588  10.632  1.00 24.49     0.003 A 
HETATM    2  C02 BE5 A 501      23.612  -3.886  10.426  1.00 24.30    -0.014 A 
HETATM    3  C03 BE5 A 501      22.391  -4.590  10.083  1.00 26.88     0.035 A 
HETATM    4  C04 BE5 A 501      22.392  -6.053   9.929  1.00 26.55     0.077 A 
HETATM    5  C05 BE5 A 501      23.658  -6.793  10.131  1.00 25.99     0.133 A 
HETATM    6  C06 BE5 A 501      24.877  -6.073  10.473  1.00 25.99     0.158 A 
HETATM    7  F50 BE5 A 501      23.688  -8.253   9.987  1.00 29.63    -0.208 F 
HETATM    8  F51 BE5 A 501      26.195  -6.797  10.692  1.00 27.35    -0.203 F 
ENDROOT
BRANCH   1   9
HETATM    9  C23 BE5 A 501      26.113  -3.729  10.996  1.00 23.01     0.210 C 
BRANCH   9  10
HETATM   10  O22 BE5 A 501      26.953  -3.570   9.809  1.00 22.02    -0.369 OA
BRANCH  10  11
HETATM   11  C18 BE5 A 501      28.298  -2.931   9.919  1.00 18.95     0.244 C 
BRANCH  11  12
HETATM   12  C17 BE5 A 501      28.723  -2.182   8.581  1.00 20.08     0.188 C 
BRANCH  12  13
HETATM   13  C16 BE5 A 501      29.489  -1.002   8.962  1.00 20.53     0.188 C 
BRANCH  13  14
HETATM   14  C15 BE5 A 501      29.089   0.202   8.153  1.00 18.51     0.244 C 
BRANCH  14  15
HETATM   15  O14 BE5 A 501      28.886   1.458   9.006  1.00 19.29    -0.369 OA
BRANCH  15  16
HETATM   16  C13 BE5 A 501      29.191   1.439  10.438  1.00 21.08     0.206 C 
BRANCH  16  17
HETATM   17  C07 BE5 A 501      27.906   1.519  11.254  1.00 21.04    -0.015 A 
HETATM   18  C08 BE5 A 501      27.270   2.795  11.633  1.00 23.02     0.155 A 
HETATM   19  C09 BE5 A 501      26.003   2.788  12.426  1.00 21.73     0.132 A 
HETATM   20  F52 BE5 A 501      27.887   4.086  11.223  1.00 24.30    -0.203 F 
HETATM   21  C10 BE5 A 501      25.392   1.479  12.832  1.00 24.35     0.073 A 
HETATM   22  F49 BE5 A 501      25.374   4.049  12.798  1.00 27.68    -0.208 F 
HETATM   23  C11 BE5 A 501      26.073   0.212  12.426  1.00 23.62     0.011 A 
HETATM   24  C12 BE5 A 501      27.290   0.256  11.659  1.00 22.67     0.040 A 
ENDBRANCH  16  17
ENDBRANCH  15  16
ENDBRANCH  14  15
BRANCH  14  25
HETATM   25  C26 BE5 A 501      30.177   0.393   7.175  1.00 16.79     0.250 C 
HETATM   26  O27 BE5 A 501      31.052   1.272   7.380  1.00 20.11    -0.271 OA
HETATM   27  N28 BE5 A 501      30.213  -0.397   6.070  1.00 15.99    -0.348 N 
HETATM   28  H28 BE5 A 501      29.488  -1.102   5.938  1.00  0.00     0.163 HD
BRANCH  27  29
HETATM   29  C29 BE5 A 501      31.258  -0.258   5.077  1.00 16.00     0.143 C 
HETATM   30  C30 BE5 A 501      31.460  -1.560   4.371  1.00 16.23    -0.052 A 
HETATM   31  C31 BE5 A 501      31.874  -1.310   2.988  1.00 17.03    -0.073 A 
HETATM   32  C32 BE5 A 501      31.300  -2.948   4.868  1.00 16.86     0.036 A 
HETATM   33  C37 BE5 A 501      32.141  -2.420   2.057  1.00 17.71     0.034 A 
HETATM   34  C38 BE5 A 501      31.953   0.151   2.767  1.00 16.65     0.068 C 
HETATM   35  C34 BE5 A 501      31.980  -3.802   2.550  1.00 19.35     0.005 A 
HETATM   36  C33 BE5 A 501      31.565  -4.089   3.934  1.00 18.24     0.005 A 
HETATM   37  C35 BE5 A 501      30.978   0.670   3.865  1.00 16.83     0.149 C 
BRANCH  37  38
HETATM   38  O36 BE5 A 501      29.574   0.528   3.537  1.00 14.03    -0.393 OA
HETATM   39  H36 BE5 A 501      29.341  -0.378   3.701  1.00  0.00     0.210 HD
ENDBRANCH  37  38
ENDBRANCH  27  29
ENDBRANCH  14  25
ENDBRANCH  13  14
BRANCH  13  40
HETATM   40  O25 BE5 A 501      30.930  -1.259   8.703  1.00 21.98    -0.390 OA
HETATM   41  H25 BE5 A 501      31.429  -0.605   9.178  1.00  0.00     0.210 HD
ENDBRANCH  13  40
ENDBRANCH  12  13
BRANCH  12  42
HETATM   42  O24 BE5 A 501      29.548  -3.038   7.746  1.00 17.11    -0.390 OA
HETATM   43  H24 BE5 A 501      30.109  -3.567   8.300  1.00  0.00     0.210 HD
ENDBRANCH  12  42
ENDBRANCH  11  12
BRANCH  11  44
HETATM   44  C19 BE5 A 501      29.310  -3.991  10.319  1.00 17.37     0.250 C 
HETATM   45  O20 BE5 A 501      30.394  -3.675  10.871  1.00 18.21    -0.271 OA
HETATM   46  N21 BE5 A 501      29.011  -5.293  10.038  1.00 14.53    -0.348 N 
HETATM   47  H21 BE5 A 501      28.121  -5.498   9.584  1.00  0.00     0.163 HD
BRANCH  46  48
HETATM   48  C39 BE5 A 501      29.890  -6.396  10.350  1.00 14.05     0.143 C 
HETATM   49  C40 BE5 A 501      29.464  -7.121  11.620  1.00 15.79    -0.052 A 
HETATM   50  C41 BE5 A 501      29.632  -8.554  11.447  1.00 16.99    -0.073 A 
HETATM   51  C42 BE5 A 501      28.943  -6.582  12.885  1.00 16.33     0.036 A 
HETATM   52  C47 BE5 A 501      29.292  -9.511  12.518  1.00 17.22     0.034 A 
HETATM   53  C48 BE5 A 501      30.175  -8.806  10.072  1.00 15.28     0.068 C 
HETATM   54  C44 BE5 A 501      28.774  -8.966  13.775  1.00 17.66     0.005 A 
HETATM   55  C43 BE5 A 501      28.590  -7.527  13.988  1.00 18.87     0.005 A 
HETATM   56  C45 BE5 A 501      29.793  -7.532   9.297  1.00 13.23     0.149 C 
BRANCH  56  57
HETATM   57  O46 BE5 A 501      28.435  -7.545   8.787  1.00 13.13    -0.393 OA
HETATM   58  H46 BE5 A 501      28.028  -6.722   9.029  1.00  0.00     0.210 HD
ENDBRANCH  56  57
ENDBRANCH  46  48
ENDBRANCH  11  44
ENDBRANCH  10  11
ENDBRANCH   9  10
ENDBRANCH   1   9
TORSDOF 17
ENDMDL
MODEL 7
REMARK VINA RESULT:      -7.0      3.007      6.314
REMARK  17 active torsions:
REMARK  status: ('A' for Active; 'I' for Inactive)
REMARK    1  A    between atoms: C01_1  and  C23_41 
REMARK    2  A    between atoms: C07_12  and  C13_24 
REMARK    3  A    between atoms: C13_24  and  O14_27 
REMARK    4  A    between atoms: O14_27  and  C15_28 
REMARK    5  A    between atoms: C15_28  and  C16_30 
REMARK    6  A    between atoms: C15_28  and  C26_48 
REMARK    7  A    between atoms: C16_30  and  C17_32 
REMARK    8  A    between atoms: C16_30  and  O25_46 
REMARK    9  A    between atoms: C17_32  and  C18_34 
REMARK   10  A    between atoms: C17_32  and  O24_44 
REMARK   11  A    between atoms: C18_34  and  C19_36 
REMARK   12  A    between atoms: C18_34  and  O22_40 
REMARK       I    between atoms: C19_36  and  N21_38 
REMARK   13  A    between atoms: N21_38  and  C39_75 
REMARK   14  A    between atoms: O22_40  and  C23_41 
REMARK       I    between atoms: C26_48  and  N28_50 
REMARK   15  A    between atoms: N28_50  and  C29_52 
REMARK   16  A    between atoms: C35_65  and  O36_67 
REMARK   17  A    between atoms: C45_88  and  O46_90 
ROOT
HETATM    1  C01 BE5 A 501      25.212  -6.085  10.673  1.00 24.49     0.003 A 
HETATM    2  C02 BE5 A 501      25.528  -4.673  10.959  1.00 24.30    -0.014 A 
HETATM    3  C03 BE5 A 501      24.554  -3.612  10.784  1.00 26.88     0.035 A 
HETATM    4  C04 BE5 A 501      23.195  -3.918  10.311  1.00 26.55     0.077 A 
HETATM    5  C05 BE5 A 501      22.840  -5.324  10.015  1.00 25.99     0.133 A 
HETATM    6  C06 BE5 A 501      23.828  -6.378  10.194  1.00 25.99     0.158 A 
HETATM    7  F50 BE5 A 501      21.491  -5.659   9.544  1.00 29.63    -0.208 F 
HETATM    8  F51 BE5 A 501      23.500  -7.835   9.905  1.00 27.35    -0.203 F 
ENDROOT
BRANCH   1   9
HETATM    9  C23 BE5 A 501      26.329  -7.114  10.901  1.00 23.01     0.210 C 
BRANCH   9  10
HETATM   10  O22 BE5 A 501      27.442  -6.814  10.001  1.00 22.02    -0.369 OA
BRANCH  10  11
HETATM   11  C18 BE5 A 501      28.682  -6.168  10.527  1.00 18.95     0.244 C 
BRANCH  11  12
HETATM   12  C17 BE5 A 501      29.736  -5.857   9.377  1.00 20.08     0.188 C 
BRANCH  12  13
HETATM   13  C16 BE5 A 501      30.338  -4.562   9.669  1.00 20.53     0.188 C 
BRANCH  13  14
HETATM   14  C15 BE5 A 501      29.308  -3.565  10.125  1.00 18.51     0.244 C 
BRANCH  14  15
HETATM   15  O14 BE5 A 501      29.806  -2.663  11.258  1.00 19.29    -0.369 OA
BRANCH  15  16
HETATM   16  C13 BE5 A 501      29.452  -2.957  12.649  1.00 21.08     0.206 C 
BRANCH  16  17
HETATM   17  C07 BE5 A 501      28.047  -2.449  12.956  1.00 21.04    -0.015 A 
HETATM   18  C08 BE5 A 501      27.118  -3.147  13.865  1.00 23.02     0.155 A 
HETATM   19  C09 BE5 A 501      25.761  -2.579  14.121  1.00 21.73     0.132 A 
HETATM   20  F52 BE5 A 501      27.535  -4.412  14.529  1.00 24.30    -0.203 F 
HETATM   21  C10 BE5 A 501      25.354  -1.302  13.446  1.00 24.35     0.073 A 
HETATM   22  F49 BE5 A 501      24.845  -3.266  15.023  1.00 27.68    -0.208 F 
HETATM   23  C11 BE5 A 501      26.328  -0.631  12.532  1.00 23.62     0.011 A 
HETATM   24  C12 BE5 A 501      27.629  -1.205  12.310  1.00 22.67     0.040 A 
ENDBRANCH  16  17
ENDBRANCH  15  16
ENDBRANCH  14  15
BRANCH  14  25
HETATM   25  C26 BE5 A 501      28.974  -2.774   8.924  1.00 16.79     0.250 C 
HETATM   26  O27 BE5 A 501      28.113  -3.205   8.114  1.00 20.11    -0.271 OA
HETATM   27  N28 BE5 A 501      29.603  -1.589   8.722  1.00 15.99    -0.348 N 
HETATM   28  H28 BE5 A 501      30.294  -1.269   9.401  1.00  0.00     0.163 HD
BRANCH  27  29
HETATM   29  C29 BE5 A 501      29.314  -0.769   7.564  1.00 16.00     0.143 C 
HETATM   30  C30 BE5 A 501      29.842   0.614   7.779  1.00 16.23    -0.052 A 
HETATM   31  C31 BE5 A 501      30.250   1.189   6.495  1.00 17.03    -0.073 A 
HETATM   32  C32 BE5 A 501      29.988   1.394   9.032  1.00 16.86     0.036 A 
HETATM   33  C37 BE5 A 501      30.814   2.548   6.411  1.00 17.71     0.034 A 
HETATM   34  C38 BE5 A 501      29.996   0.202   5.423  1.00 16.65     0.068 C 
HETATM   35  C34 BE5 A 501      30.961   3.324   7.657  1.00 19.35     0.005 A 
HETATM   36  C33 BE5 A 501      30.560   2.776   8.964  1.00 18.24     0.005 A 
HETATM   37  C35 BE5 A 501      30.026  -1.129   6.232  1.00 16.83     0.149 C 
BRANCH  37  38
HETATM   38  O36 BE5 A 501      31.354  -1.594   6.574  1.00 14.03    -0.393 OA
HETATM   39  H36 BE5 A 501      31.861  -0.829   6.820  1.00  0.00     0.210 HD
ENDBRANCH  37  38
ENDBRANCH  27  29
ENDBRANCH  14  25
ENDBRANCH  13  14
BRANCH  13  40
HETATM   40  O25 BE5 A 501      30.963  -4.030   8.430  1.00 21.98    -0.390 OA
HETATM   41  H25 BE5 A 501      30.271  -3.895   7.794  1.00  0.00     0.210 HD
ENDBRANCH  13  40
ENDBRANCH  12  13
BRANCH  12  42
HETATM   42  O24 BE5 A 501      30.778  -6.869   9.338  1.00 17.11    -0.390 OA
HETATM   43  H24 BE5 A 501      31.403  -6.648   8.658  1.00  0.00     0.210 HD
ENDBRANCH  12  42
ENDBRANCH  11  12
BRANCH  11  44
HETATM   44  C19 BE5 A 501      29.272  -7.056  11.609  1.00 17.37     0.250 C 
HETATM   45  O20 BE5 A 501      29.635  -8.233  11.356  1.00 18.21    -0.271 OA
HETATM   46  N21 BE5 A 501      29.373  -6.540  12.869  1.00 14.53    -0.348 N 
HETATM   47  H21 BE5 A 501      29.059  -5.582  13.026  1.00  0.00     0.163 HD
BRANCH  46  48
HETATM   48  C39 BE5 A 501      29.900  -7.280  13.992  1.00 14.05     0.143 C 
HETATM   49  C40 BE5 A 501      30.216  -6.372  15.174  1.00 15.79    -0.052 A 
HETATM   50  C41 BE5 A 501      29.832  -7.028  16.412  1.00 16.99    -0.073 A 
HETATM   51  C42 BE5 A 501      30.806  -5.025  15.198  1.00 16.33     0.036 A 
HETATM   52  C47 BE5 A 501      30.018  -6.378  17.725  1.00 17.22     0.034 A 
HETATM   53  C48 BE5 A 501      29.265  -8.376  16.081  1.00 15.28     0.068 C 
HETATM   54  C44 BE5 A 501      30.607  -5.037  17.740  1.00 17.66     0.005 A 
HETATM   55  C43 BE5 A 501      31.006  -4.342  16.512  1.00 18.87     0.005 A 
HETATM   56  C45 BE5 A 501      28.842  -8.234  14.608  1.00 13.23     0.149 C 
BRANCH  56  57
HETATM   57  O46 BE5 A 501      27.539  -7.619  14.433  1.00 13.13    -0.393 OA
HETATM   58  H46 BE5 A 501      26.957  -8.275  14.069  1.00  0.00     0.210 HD
ENDBRANCH  56  57
ENDBRANCH  46  48
ENDBRANCH  11  44
ENDBRANCH  10  11
ENDBRANCH   9  10
ENDBRANCH   1   9
TORSDOF 17
ENDMDL
MODEL 8
REMARK VINA RESULT:      -6.9      2.317      4.225
REMARK  17 active torsions:
REMARK  status: ('A' for Active; 'I' for Inactive)
REMARK    1  A    between atoms: C01_1  and  C23_41 
REMARK    2  A    between atoms: C07_12  and  C13_24 
REMARK    3  A    between atoms: C13_24  and  O14_27 
REMARK    4  A    between atoms: O14_27  and  C15_28 
REMARK    5  A    between atoms: C15_28  and  C16_30 
REMARK    6  A    between atoms: C15_28  and  C26_48 
REMARK    7  A    between atoms: C16_30  and  C17_32 
REMARK    8  A    between atoms: C16_30  and  O25_46 
REMARK    9  A    between atoms: C17_32  and  C18_34 
REMARK   10  A    between atoms: C17_32  and  O24_44 
REMARK   11  A    between atoms: C18_34  and  C19_36 
REMARK   12  A    between atoms: C18_34  and  O22_40 
REMARK       I    between atoms: C19_36  and  N21_38 
REMARK   13  A    between atoms: N21_38  and  C39_75 
REMARK   14  A    between atoms: O22_40  and  C23_41 
REMARK       I    between atoms: C26_48  and  N28_50 
REMARK   15  A    between atoms: N28_50  and  C29_52 
REMARK   16  A    between atoms: C35_65  and  O36_67 
REMARK   17  A    between atoms: C45_88  and  O46_90 
ROOT
HETATM    1  C01 BE5 A 501      29.394  -0.254   5.974  1.00 24.49     0.003 A 
HETATM    2  C02 BE5 A 501      29.955  -0.350   4.614  1.00 24.30    -0.014 A 
HETATM    3  C03 BE5 A 501      30.818   0.675   4.058  1.00 26.88     0.035 A 
HETATM    4  C04 BE5 A 501      31.170   1.863   4.851  1.00 26.55     0.077 A 
HETATM    5  C05 BE5 A 501      30.629   1.994   6.222  1.00 25.99     0.133 A 
HETATM    6  C06 BE5 A 501      29.762   0.958   6.766  1.00 25.99     0.158 A 
HETATM    7  F50 BE5 A 501      30.966   3.167   7.037  1.00 29.63    -0.208 F 
HETATM    8  F51 BE5 A 501      29.191   1.054   8.172  1.00 27.35    -0.203 F 
ENDROOT
BRANCH   1   9
HETATM    9  C23 BE5 A 501      28.497  -1.408   6.447  1.00 23.01     0.210 C 
BRANCH   9  10
HETATM   10  O22 BE5 A 501      29.342  -2.486   6.960  1.00 22.02    -0.369 OA
BRANCH  10  11
HETATM   11  C18 BE5 A 501      29.104  -3.043   8.325  1.00 18.95     0.244 C 
BRANCH  11  12
HETATM   12  C17 BE5 A 501      29.241  -1.939   9.462  1.00 20.08     0.188 C 
BRANCH  12  13
HETATM   13  C16 BE5 A 501      28.869  -2.560  10.726  1.00 20.53     0.188 C 
BRANCH  13  14
HETATM   14  C15 BE5 A 501      27.512  -2.106  11.187  1.00 18.51     0.244 C 
BRANCH  14  15
HETATM   15  O14 BE5 A 501      26.362  -2.839  10.489  1.00 19.29    -0.369 OA
BRANCH  15  16
HETATM   16  C13 BE5 A 501      25.049  -2.940  11.130  1.00 21.08     0.206 C 
BRANCH  16  17
HETATM   17  C07 BE5 A 501      24.341  -4.215  10.688  1.00 21.04    -0.015 A 
HETATM   18  C08 BE5 A 501      25.002  -5.535  10.656  1.00 23.02     0.155 A 
HETATM   19  C09 BE5 A 501      24.235  -6.740  10.219  1.00 21.73     0.132 A 
HETATM   20  F52 BE5 A 501      26.428  -5.664  11.063  1.00 24.30    -0.203 F 
HETATM   21  C10 BE5 A 501      22.798  -6.594   9.812  1.00 24.35     0.073 A 
HETATM   22  F49 BE5 A 501      24.887  -8.043  10.192  1.00 27.68    -0.208 F 
HETATM   23  C11 BE5 A 501      22.171  -5.238   9.859  1.00 23.62     0.011 A 
HETATM   24  C12 BE5 A 501      22.939  -4.099  10.289  1.00 22.67     0.040 A 
ENDBRANCH  16  17
ENDBRANCH  15  16
ENDBRANCH  14  15
BRANCH  14  25
HETATM   25  C26 BE5 A 501      27.493  -2.350  12.643  1.00 16.79     0.250 C 
HETATM   26  O27 BE5 A 501      27.166  -1.423  13.427  1.00 20.11    -0.271 OA
HETATM   27  N28 BE5 A 501      27.825  -3.583  13.106  1.00 15.99    -0.348 N 
HETATM   28  H28 BE5 A 501      28.082  -4.312  12.441  1.00  0.00     0.163 HD
BRANCH  27  29
HETATM   29  C29 BE5 A 501      27.822  -3.883  14.523  1.00 16.00     0.143 C 
HETATM   30  C30 BE5 A 501      28.034  -5.349  14.729  1.00 16.23    -0.052 A 
HETATM   31  C31 BE5 A 501      28.758  -5.568  15.983  1.00 17.03    -0.073 A 
HETATM   32  C32 BE5 A 501      27.634  -6.498  13.882  1.00 16.86     0.036 A 
HETATM   33  C37 BE5 A 501      29.108  -6.925  16.437  1.00 17.71     0.034 A 
HETATM   34  C38 BE5 A 501      29.028  -4.259  16.618  1.00 16.65     0.068 C 
HETATM   35  C34 BE5 A 501      28.712  -8.070  15.594  1.00 19.35     0.005 A 
HETATM   36  C33 BE5 A 501      27.983  -7.885  14.327  1.00 18.24     0.005 A 
HETATM   37  C35 BE5 A 501      28.983  -3.314  15.381  1.00 16.83     0.149 C 
BRANCH  37  38
HETATM   38  O36 BE5 A 501      30.175  -3.348  14.557  1.00 14.03    -0.393 OA
HETATM   39  H36 BE5 A 501      30.804  -3.904  15.001  1.00  0.00     0.210 HD
ENDBRANCH  37  38
ENDBRANCH  27  29
ENDBRANCH  14  25
ENDBRANCH  13  14
BRANCH  13  40
HETATM   40  O25 BE5 A 501      29.854  -2.164  11.767  1.00 21.98    -0.390 OA
HETATM   41  H25 BE5 A 501      29.373  -1.988  12.566  1.00  0.00     0.210 HD
ENDBRANCH  13  40
ENDBRANCH  12  13
BRANCH  12  42
HETATM   42  O24 BE5 A 501      30.607  -1.454   9.553  1.00 17.11    -0.390 OA
HETATM   43  H24 BE5 A 501      30.968  -1.370   8.678  1.00  0.00     0.210 HD
ENDBRANCH  12  42
ENDBRANCH  11  12
BRANCH  11  44
HETATM   44  C19 BE5 A 501      30.057  -4.206   8.549  1.00 17.37     0.250 C 
HETATM   45  O20 BE5 A 501      31.280  -4.102   8.280  1.00 18.21    -0.271 OA
HETATM   46  N21 BE5 A 501      29.533  -5.372   9.028  1.00 14.53    -0.348 N 
HETATM   47  H21 BE5 A 501      28.533  -5.409   9.225  1.00  0.00     0.163 HD
BRANCH  46  48
HETATM   48  C39 BE5 A 501      30.322  -6.557   9.271  1.00 14.05     0.143 C 
HETATM   49  C40 BE5 A 501      30.769  -6.655  10.724  1.00 15.79    -0.052 A 
HETATM   50  C41 BE5 A 501      30.681  -8.034  11.173  1.00 16.99    -0.073 A 
HETATM   51  C42 BE5 A 501      31.233  -5.603  11.642  1.00 16.33     0.036 A 
HETATM   52  C47 BE5 A 501      31.048  -8.429  12.548  1.00 17.22     0.034 A 
HETATM   53  C48 BE5 A 501      30.184  -8.874  10.035  1.00 15.28     0.068 C 
HETATM   54  C44 BE5 A 501      31.509  -7.376  13.455  1.00 17.66     0.005 A 
HETATM   55  C43 BE5 A 501      31.611  -5.973  13.040  1.00 18.87     0.005 A 
HETATM   56  C45 BE5 A 501      29.485  -7.855   9.117  1.00 13.23     0.149 C 
BRANCH  56  57
HETATM   57  O46 BE5 A 501      28.123  -7.550   9.515  1.00 13.13    -0.393 OA
HETATM   58  H46 BE5 A 501      27.852  -6.772   9.043  1.00  0.00     0.210 HD
ENDBRANCH  56  57
ENDBRANCH  46  48
ENDBRANCH  11  44
ENDBRANCH  10  11
ENDBRANCH   9  10
ENDBRANCH   1   9
TORSDOF 17
ENDMDL
MODEL 9
REMARK VINA RESULT:      -6.9      2.653      7.476
REMARK  17 active torsions:
REMARK  status: ('A' for Active; 'I' for Inactive)
REMARK    1  A    between atoms: C01_1  and  C23_41 
REMARK    2  A    between atoms: C07_12  and  C13_24 
REMARK    3  A    between atoms: C13_24  and  O14_27 
REMARK    4  A    between atoms: O14_27  and  C15_28 
REMARK    5  A    between atoms: C15_28  and  C16_30 
REMARK    6  A    between atoms: C15_28  and  C26_48 
REMARK    7  A    between atoms: C16_30  and  C17_32 
REMARK    8  A    between atoms: C16_30  and  O25_46 
REMARK    9  A    between atoms: C17_32  and  C18_34 
REMARK   10  A    between atoms: C17_32  and  O24_44 
REMARK   11  A    between atoms: C18_34  and  C19_36 
REMARK   12  A    between atoms: C18_34  and  O22_40 
REMARK       I    between atoms: C19_36  and  N21_38 
REMARK   13  A    between atoms: N21_38  and  C39_75 
REMARK   14  A    between atoms: O22_40  and  C23_41 
REMARK       I    between atoms: C26_48  and  N28_50 
REMARK   15  A    between atoms: N28_50  and  C29_52 
REMARK   16  A    between atoms: C35_65  and  O36_67 
REMARK   17  A    between atoms: C45_88  and  O46_90 
ROOT
HETATM    1  C01 BE5 A 501      30.072  -3.593   6.344  1.00 24.49     0.003 A 
HETATM    2  C02 BE5 A 501      30.752  -4.574   5.478  1.00 24.30    -0.014 A 
HETATM    3  C03 BE5 A 501      31.000  -4.323   4.071  1.00 26.88     0.035 A 
HETATM    4  C04 BE5 A 501      30.574  -3.057   3.454  1.00 26.55     0.077 A 
HETATM    5  C05 BE5 A 501      29.891  -2.046   4.291  1.00 25.99     0.133 A 
HETATM    6  C06 BE5 A 501      29.648  -2.313   5.702  1.00 25.99     0.158 A 
HETATM    7  F50 BE5 A 501      29.458  -0.773   3.703  1.00 29.63    -0.208 F 
HETATM    8  F51 BE5 A 501      28.953  -1.299   6.597  1.00 27.35    -0.203 F 
ENDROOT
BRANCH   1   9
HETATM    9  C23 BE5 A 501      29.874  -3.977   7.818  1.00 23.01     0.210 C 
BRANCH   9  10
HETATM   10  O22 BE5 A 501      31.071  -3.605   8.571  1.00 22.02    -0.369 OA
BRANCH  10  11
HETATM   11  C18 BE5 A 501      30.948  -3.027   9.942  1.00 18.95     0.244 C 
BRANCH  11  12
HETATM   12  C17 BE5 A 501      29.476  -3.167  10.528  1.00 20.08     0.188 C 
BRANCH  12  13
HETATM   13  C16 BE5 A 501      29.581  -3.806  11.834  1.00 20.53     0.188 C 
BRANCH  13  14
HETATM   14  C15 BE5 A 501      28.227  -4.115  12.410  1.00 18.51     0.244 C 
BRANCH  14  15
HETATM   15  O14 BE5 A 501      27.100  -4.029  11.375  1.00 19.29    -0.369 OA
BRANCH  15  16
HETATM   16  C13 BE5 A 501      25.706  -3.912  11.807  1.00 21.08     0.206 C 
BRANCH  16  17
HETATM   17  C07 BE5 A 501      24.843  -4.948  11.094  1.00 21.04    -0.015 A 
HETATM   18  C08 BE5 A 501      23.476  -4.667  10.614  1.00 23.02     0.155 A 
HETATM   19  C09 BE5 A 501      22.699  -5.734   9.916  1.00 21.73     0.132 A 
HETATM   20  F52 BE5 A 501      22.875  -3.321  10.823  1.00 24.30    -0.203 F 
HETATM   21  C10 BE5 A 501      23.318  -7.086   9.712  1.00 24.35     0.073 A 
HETATM   22  F49 BE5 A 501      21.351  -5.455   9.438  1.00 27.68    -0.208 F 
HETATM   23  C11 BE5 A 501      24.705  -7.325  10.216  1.00 23.62     0.011 A 
HETATM   24  C12 BE5 A 501      25.426  -6.272  10.882  1.00 22.67     0.040 A 
ENDBRANCH  16  17
ENDBRANCH  15  16
ENDBRANCH  14  15
BRANCH  14  25
HETATM   25  C26 BE5 A 501      28.340  -5.479  12.962  1.00 16.79     0.250 C 
HETATM   26  O27 BE5 A 501      27.992  -5.701  14.150  1.00 20.11    -0.271 OA
HETATM   27  N28 BE5 A 501      28.815  -6.471  12.166  1.00 15.99    -0.348 N 
HETATM   28  H28 BE5 A 501      29.086  -6.255  11.207  1.00  0.00     0.163 HD
BRANCH  27  29
HETATM   29  C29 BE5 A 501      28.946  -7.830  12.652  1.00 16.00     0.143 C 
HETATM   30  C30 BE5 A 501      29.029  -8.773  11.495  1.00 16.23    -0.052 A 
HETATM   31  C31 BE5 A 501      29.868  -9.919  11.855  1.00 17.03    -0.073 A 
HETATM   32  C32 BE5 A 501      28.417  -8.685  10.147  1.00 16.86     0.036 A 
HETATM   33  C37 BE5 A 501      30.126 -11.009  10.897  1.00 17.71     0.034 A 
HETATM   34  C38 BE5 A 501      30.343  -9.749  13.246  1.00 16.65     0.068 C 
HETATM   35  C34 BE5 A 501      29.518 -10.921   9.555  1.00 19.35     0.005 A 
HETATM   36  C33 BE5 A 501      28.670  -9.784   9.161  1.00 18.24     0.005 A 
HETATM   37  C35 BE5 A 501      30.252  -8.202  13.403  1.00 16.83     0.149 C 
BRANCH  37  38
HETATM   38  O36 BE5 A 501      31.330  -7.471  12.768  1.00 14.03    -0.393 OA
HETATM   39  H36 BE5 A 501      30.933  -6.757  12.282  1.00  0.00     0.210 HD
ENDBRANCH  37  38
ENDBRANCH  27  29
ENDBRANCH  14  25
ENDBRANCH  13  14
BRANCH  13  40
HETATM   40  O25 BE5 A 501      30.268  -2.878  12.771  1.00 21.98    -0.390 OA
HETATM   41  H25 BE5 A 501      29.766  -2.857  13.576  1.00  0.00     0.210 HD
ENDBRANCH  13  40
ENDBRANCH  12  13
BRANCH  12  42
HETATM   42  O24 BE5 A 501      28.852  -1.864  10.683  1.00 17.11    -0.390 OA
HETATM   43  H24 BE5 A 501      28.519  -1.576   9.842  1.00  0.00     0.210 HD
ENDBRANCH  12  42
ENDBRANCH  11  12
BRANCH  11  44
HETATM   44  C19 BE5 A 501      31.406  -1.578   9.902  1.00 17.37     0.250 C 
HETATM   45  O20 BE5 A 501      31.952  -1.044  10.900  1.00 18.21    -0.271 OA
HETATM   46  N21 BE5 A 501      31.181  -0.873   8.755  1.00 14.53    -0.348 N 
HETATM   47  H21 BE5 A 501      30.729  -1.349   7.975  1.00  0.00     0.163 HD
BRANCH  46  48
HETATM   48  C39 BE5 A 501      31.551   0.513   8.589  1.00 14.05     0.143 C 
HETATM   49  C40 BE5 A 501      31.685   0.894   7.120  1.00 15.79    -0.052 A 
HETATM   50  C41 BE5 A 501      31.136   2.223   6.906  1.00 16.99    -0.073 A 
HETATM   51  C42 BE5 A 501      32.250   0.134   5.995  1.00 16.33     0.036 A 
HETATM   52  C47 BE5 A 501      31.125   2.853   5.571  1.00 17.22     0.034 A 
HETATM   53  C48 BE5 A 501      30.636   2.748   8.219  1.00 15.28     0.068 C 
HETATM   54  C44 BE5 A 501      31.690   2.089   4.457  1.00 17.66     0.005 A 
HETATM   55  C43 BE5 A 501      32.253   0.746   4.632  1.00 18.87     0.005 A 
HETATM   56  C45 BE5 A 501      30.426   1.475   9.057  1.00 13.23     0.149 C 
BRANCH  56  57
HETATM   57  O46 BE5 A 501      29.155   0.819   8.813  1.00 13.13    -0.393 OA
HETATM   58  H46 BE5 A 501      28.498   1.496   8.704  1.00  0.00     0.210 HD
ENDBRANCH  56  57
ENDBRANCH  46  48
ENDBRANCH  11  44
ENDBRANCH  10  11
ENDBRANCH   9  10
ENDBRANCH   1   9
TORSDOF 17
ENDMDL
MODEL 10
REMARK VINA RESULT:      -6.9      2.468      7.257
REMARK  17 active torsions:
REMARK  status: ('A' for Active; 'I' for Inactive)
REMARK    1  A    between atoms: C01_1  and  C23_41 
REMARK    2  A    between atoms: C07_12  and  C13_24 
REMARK    3  A    between atoms: C13_24  and  O14_27 
REMARK    4  A    between atoms: O14_27  and  C15_28 
REMARK    5  A    between atoms: C15_28  and  C16_30 
REMARK    6  A    between atoms: C15_28  and  C26_48 
REMARK    7  A    between atoms: C16_30  and  C17_32 
REMARK    8  A    between atoms: C16_30  and  O25_46 
REMARK    9  A    between atoms: C17_32  and  C18_34 
REMARK   10  A    between atoms: C17_32  and  O24_44 
REMARK   11  A    between atoms: C18_34  and  C19_36 
REMARK   12  A    between atoms: C18_34  and  O22_40 
REMARK       I    between atoms: C19_36  and  N21_38 
REMARK   13  A    between atoms: N21_38  and  C39_75 
REMARK   14  A    between atoms: O22_40  and  C23_41 
REMARK       I    between atoms: C26_48  and  N28_50 
REMARK   15  A    between atoms: N28_50  and  C29_52 
REMARK   16  A    between atoms: C35_65  and  O36_67 
REMARK   17  A    between atoms: C45_88  and  O46_90 
ROOT
HETATM    1  C01 BE5 A 501      24.426  -5.215  10.591  1.00 24.49     0.003 A 
HETATM    2  C02 BE5 A 501      23.214  -4.402  10.381  1.00 24.30    -0.014 A 
HETATM    3  C03 BE5 A 501      22.011  -4.946   9.779  1.00 26.88     0.035 A 
HETATM    4  C04 BE5 A 501      21.963  -6.353   9.353  1.00 26.55     0.077 A 
HETATM    5  C05 BE5 A 501      23.159  -7.202   9.549  1.00 25.99     0.133 A 
HETATM    6  C06 BE5 A 501      24.359  -6.641  10.153  1.00 25.99     0.158 A 
HETATM    7  F50 BE5 A 501      23.137  -8.610   9.136  1.00 29.63    -0.208 F 
HETATM    8  F51 BE5 A 501      25.606  -7.482  10.375  1.00 27.35    -0.203 F 
ENDROOT
BRANCH   1   9
HETATM    9  C23 BE5 A 501      25.632  -4.522  11.242  1.00 23.01     0.210 C 
BRANCH   9  10
HETATM   10  O22 BE5 A 501      26.504  -4.000  10.190  1.00 22.02    -0.369 OA
BRANCH  10  11
HETATM   11  C18 BE5 A 501      27.971  -3.860  10.430  1.00 18.95     0.244 C 
BRANCH  11  12
HETATM   12  C17 BE5 A 501      28.673  -2.919   9.356  1.00 20.08     0.188 C 
BRANCH  12  13
HETATM   13  C16 BE5 A 501      28.588  -1.550   9.848  1.00 20.53     0.188 C 
BRANCH  13  14
HETATM   14  C15 BE5 A 501      29.939  -1.016  10.236  1.00 18.51     0.244 C 
BRANCH  14  15
HETATM   15  O14 BE5 A 501      30.296   0.292   9.522  1.00 19.29    -0.369 OA
BRANCH  15  16
HETATM   16  C13 BE5 A 501      29.312   0.963   8.670  1.00 21.08     0.206 C 
BRANCH  16  17
HETATM   17  C07 BE5 A 501      29.847   1.097   7.249  1.00 21.04    -0.015 A 
HETATM   18  C08 BE5 A 501      29.592   0.097   6.194  1.00 23.02     0.155 A 
HETATM   19  C09 BE5 A 501      30.144   0.307   4.822  1.00 21.73     0.132 A 
HETATM   20  F52 BE5 A 501      28.782  -1.115   6.496  1.00 24.30    -0.203 F 
HETATM   21  C10 BE5 A 501      30.958   1.533   4.532  1.00 24.35     0.073 A 
HETATM   22  F49 BE5 A 501      29.888  -0.679   3.779  1.00 27.68    -0.208 F 
HETATM   23  C11 BE5 A 501      31.192   2.518   5.632  1.00 23.62     0.011 A 
HETATM   24  C12 BE5 A 501      30.642   2.286   6.942  1.00 22.67     0.040 A 
ENDBRANCH  16  17
ENDBRANCH  15  16
ENDBRANCH  14  15
BRANCH  14  25
HETATM   25  C26 BE5 A 501      29.877  -0.825  11.698  1.00 16.79     0.250 C 
HETATM   26  O27 BE5 A 501      29.543   0.293  12.167  1.00 20.11    -0.271 OA
HETATM   27  N28 BE5 A 501      30.179  -1.870  12.510  1.00 15.99    -0.348 N 
HETATM   28  H28 BE5 A 501      30.444  -2.764  12.095  1.00  0.00     0.163 HD
BRANCH  27  29
HETATM   29  C29 BE5 A 501      30.134  -1.744  13.952  1.00 16.00     0.143 C 
HETATM   30  C30 BE5 A 501      29.365  -2.886  14.535  1.00 16.23    -0.052 A 
HETATM   31  C31 BE5 A 501      29.902  -3.215  15.857  1.00 17.03    -0.073 A 
HETATM   32  C32 BE5 A 501      28.227  -3.655  13.974  1.00 16.86     0.036 A 
HETATM   33  C37 BE5 A 501      29.334  -4.310  16.663  1.00 17.71     0.034 A 
HETATM   34  C38 BE5 A 501      31.022  -2.298  16.164  1.00 16.65     0.068 C 
HETATM   35  C34 BE5 A 501      28.203  -5.076  16.106  1.00 19.35     0.005 A 
HETATM   36  C33 BE5 A 501      27.638  -4.771  14.780  1.00 18.24     0.005 A 
HETATM   37  C35 BE5 A 501      31.470  -1.888  14.729  1.00 16.83     0.149 C 
BRANCH  37  38
HETATM   38  O36 BE5 A 501      32.257  -2.887  14.037  1.00 14.03    -0.393 OA
HETATM   39  H36 BE5 A 501      32.231  -3.676  14.566  1.00  0.00     0.210 HD
ENDBRANCH  37  38
ENDBRANCH  27  29
ENDBRANCH  14  25
ENDBRANCH  13  14
BRANCH  13  40
HETATM   40  O25 BE5 A 501      27.729  -1.526  11.062  1.00 21.98    -0.390 OA
HETATM   41  H25 BE5 A 501      26.859  -1.257  10.793  1.00  0.00     0.210 HD
ENDBRANCH  13  40
ENDBRANCH  12  13
BRANCH  12  42
HETATM   42  O24 BE5 A 501      30.070  -3.279   9.185  1.00 17.11    -0.390 OA
HETATM   43  H24 BE5 A 501      30.511  -2.595   8.694  1.00  0.00     0.210 HD
ENDBRANCH  12  42
ENDBRANCH  11  12
BRANCH  11  44
HETATM   44  C19 BE5 A 501      28.594  -5.246  10.461  1.00 17.37     0.250 C 
HETATM   45  O20 BE5 A 501      28.766  -5.902   9.403  1.00 18.21    -0.271 OA
HETATM   46  N21 BE5 A 501      28.938  -5.761  11.677  1.00 14.53    -0.348 N 
HETATM   47  H21 BE5 A 501      28.772  -5.192  12.508  1.00  0.00     0.163 HD
BRANCH  46  48
HETATM   48  C39 BE5 A 501      29.522  -7.070  11.850  1.00 14.05     0.143 C 
HETATM   49  C40 BE5 A 501      30.290  -7.182  13.161  1.00 15.79    -0.052 A 
HETATM   50  C41 BE5 A 501      30.056  -8.486  13.757  1.00 16.99    -0.073 A 
HETATM   51  C42 BE5 A 501      31.158  -6.202  13.833  1.00 16.33     0.036 A 
HETATM   52  C47 BE5 A 501      30.672  -8.875  15.041  1.00 17.22     0.034 A 
HETATM   53  C48 BE5 A 501      29.141  -9.263  12.858  1.00 15.28     0.068 C 
HETATM   54  C44 BE5 A 501      31.535  -7.895  15.704  1.00 17.66     0.005 A 
HETATM   55  C43 BE5 A 501      31.795  -6.568  15.135  1.00 18.87     0.005 A 
HETATM   56  C45 BE5 A 501      28.443  -8.171  12.029  1.00 13.23     0.149 C 
BRANCH  56  57
HETATM   57  O46 BE5 A 501      27.306  -7.567  12.700  1.00 13.13    -0.393 OA
HETATM   58  H46 BE5 A 501      27.575  -6.712  13.010  1.00  0.00     0.210 HD
ENDBRANCH  56  57
ENDBRANCH  46  48
ENDBRANCH  11  44
ENDBRANCH  10  11
ENDBRANCH   9  10
ENDBRANCH   1   9
TORSDOF 17
ENDMDL
MODEL 11
REMARK VINA RESULT:      -6.9      2.435      3.601
REMARK  17 active torsions:
REMARK  status: ('A' for Active; 'I' for Inactive)
REMARK    1  A    between atoms: C01_1  and  C23_41 
REMARK    2  A    between atoms: C07_12  and  C13_24 
REMARK    3  A    between atoms: C13_24  and  O14_27 
REMARK    4  A    between atoms: O14_27  and  C15_28 
REMARK    5  A    between atoms: C15_28  and  C16_30 
REMARK    6  A    between atoms: C15_28  and  C26_48 
REMARK    7  A    between atoms: C16_30  and  C17_32 
REMARK    8  A    between atoms: C16_30  and  O25_46 
REMARK    9  A    between atoms: C17_32  and  C18_34 
REMARK   10  A    between atoms: C17_32  and  O24_44 
REMARK   11  A    between atoms: C18_34  and  C19_36 
REMARK   12  A    between atoms: C18_34  and  O22_40 
REMARK       I    between atoms: C19_36  and  N21_38 
REMARK   13  A    between atoms: N21_38  and  C39_75 
REMARK   14  A    between atoms: O22_40  and  C23_41 
REMARK       I    between atoms: C26_48  and  N28_50 
REMARK   15  A    between atoms: N28_50  and  C29_52 
REMARK   16  A    between atoms: C35_65  and  O36_67 
REMARK   17  A    between atoms: C45_88  and  O46_90 
ROOT
HETATM    1  C01 BE5 A 501      29.631  -0.312   6.074  1.00 24.49     0.003 A 
HETATM    2  C02 BE5 A 501      30.379  -0.468   4.812  1.00 24.30    -0.014 A 
HETATM    3  C03 BE5 A 501      31.227   0.582   4.281  1.00 26.88     0.035 A 
HETATM    4  C04 BE5 A 501      31.374   1.857   5.000  1.00 26.55     0.077 A 
HETATM    5  C05 BE5 A 501      30.642   2.051   6.272  1.00 25.99     0.133 A 
HETATM    6  C06 BE5 A 501      29.792   0.988   6.792  1.00 25.99     0.158 A 
HETATM    7  F50 BE5 A 501      30.772   3.311   7.012  1.00 29.63    -0.208 F 
HETATM    8  F51 BE5 A 501      29.028   1.146   8.097  1.00 27.35    -0.203 F 
ENDROOT
BRANCH   1   9
HETATM    9  C23 BE5 A 501      28.770  -1.499   6.531  1.00 23.01     0.210 C 
BRANCH   9  10
HETATM   10  O22 BE5 A 501      29.527  -2.288   7.502  1.00 22.02    -0.369 OA
BRANCH  10  11
HETATM   11  C18 BE5 A 501      28.870  -2.774   8.752  1.00 18.95     0.244 C 
BRANCH  11  12
HETATM   12  C17 BE5 A 501      28.585  -1.596   9.783  1.00 20.08     0.188 C 
BRANCH  12  13
HETATM   13  C16 BE5 A 501      27.994  -2.189  10.976  1.00 20.53     0.188 C 
BRANCH  13  14
HETATM   14  C15 BE5 A 501      26.652  -1.588  11.287  1.00 18.51     0.244 C 
BRANCH  14  15
HETATM   15  O14 BE5 A 501      25.531  -2.629  11.369  1.00 19.29    -0.369 OA
BRANCH  15  16
HETATM   16  C13 BE5 A 501      25.845  -4.059  11.342  1.00 21.08     0.206 C 
BRANCH  16  17
HETATM   17  C07 BE5 A 501      24.679  -4.846  10.754  1.00 21.04    -0.015 A 
HETATM   18  C08 BE5 A 501      24.752  -6.287  10.446  1.00 23.02     0.155 A 
HETATM   19  C09 BE5 A 501      23.560  -6.988   9.879  1.00 21.73     0.132 A 
HETATM   20  F52 BE5 A 501      26.010  -7.041  10.702  1.00 24.30    -0.203 F 
HETATM   21  C10 BE5 A 501      22.300  -6.215   9.626  1.00 24.35     0.073 A 
HETATM   22  F49 BE5 A 501      23.632  -8.412   9.579  1.00 27.68    -0.208 F 
HETATM   23  C11 BE5 A 501      22.272  -4.757   9.953  1.00 23.62     0.011 A 
HETATM   24  C12 BE5 A 501      23.438  -4.114  10.501  1.00 22.67     0.040 A 
ENDBRANCH  16  17
ENDBRANCH  15  16
ENDBRANCH  14  15
BRANCH  14  25
HETATM   25  C26 BE5 A 501      26.826  -0.891  12.576  1.00 16.79     0.250 C 
HETATM   26  O27 BE5 A 501      27.168   0.320  12.588  1.00 20.11    -0.271 OA
HETATM   27  N28 BE5 A 501      26.606  -1.575  13.727  1.00 15.99    -0.348 N 
HETATM   28  H28 BE5 A 501      26.327  -2.555  13.680  1.00  0.00     0.163 HD
BRANCH  27  29
HETATM   29  C29 BE5 A 501      26.758  -0.943  15.022  1.00 16.00     0.143 C 
HETATM   30  C30 BE5 A 501      26.165  -1.815  16.082  1.00 16.23    -0.052 A 
HETATM   31  C31 BE5 A 501      26.908  -1.642  17.332  1.00 17.03    -0.073 A 
HETATM   32  C32 BE5 A 501      25.016  -2.751  16.015  1.00 16.86     0.036 A 
HETATM   33  C37 BE5 A 501      26.541  -2.387  18.550  1.00 17.71     0.034 A 
HETATM   34  C38 BE5 A 501      27.992  -0.659  17.116  1.00 16.65     0.068 C 
HETATM   35  C34 BE5 A 501      25.399  -3.319  18.483  1.00 19.35     0.005 A 
HETATM   36  C33 BE5 A 501      24.630  -3.516  17.242  1.00 18.24     0.005 A 
HETATM   37  C35 BE5 A 501      28.199  -0.780  15.577  1.00 16.83     0.149 C 
BRANCH  37  38
HETATM   38  O36 BE5 A 501      28.948  -1.948  15.162  1.00 14.03    -0.393 OA
HETATM   39  H36 BE5 A 501      29.210  -1.804  14.260  1.00  0.00     0.210 HD
ENDBRANCH  37  38
ENDBRANCH  27  29
ENDBRANCH  14  25
ENDBRANCH  13  14
BRANCH  13  40
HETATM   40  O25 BE5 A 501      28.886  -1.925  12.137  1.00 21.98    -0.390 OA
HETATM   41  H25 BE5 A 501      29.299  -1.082  11.995  1.00  0.00     0.210 HD
ENDBRANCH  13  40
ENDBRANCH  12  13
BRANCH  12  42
HETATM   42  O24 BE5 A 501      29.814  -0.914  10.147  1.00 17.11    -0.390 OA
HETATM   43  H24 BE5 A 501      29.619  -0.008  10.354  1.00  0.00     0.210 HD
ENDBRANCH  12  42
ENDBRANCH  11  12
BRANCH  11  44
HETATM   44  C19 BE5 A 501      29.734  -3.864   9.364  1.00 17.37     0.250 C 
HETATM   45  O20 BE5 A 501      30.943  -3.654   9.640  1.00 18.21    -0.271 OA
HETATM   46  N21 BE5 A 501      29.160  -5.083   9.582  1.00 14.53    -0.348 N 
HETATM   47  H21 BE5 A 501      28.177  -5.205   9.337  1.00  0.00     0.163 HD
BRANCH  46  48
HETATM   48  C39 BE5 A 501      29.870  -6.208  10.143  1.00 14.05     0.143 C 
HETATM   49  C40 BE5 A 501      29.290  -6.636  11.485  1.00 15.79    -0.052 A 
HETATM   50  C41 BE5 A 501      29.278  -8.086  11.574  1.00 16.99    -0.073 A 
HETATM   51  C42 BE5 A 501      28.781  -5.819  12.597  1.00 16.33     0.036 A 
HETATM   52  C47 BE5 A 501      28.762  -8.787  12.767  1.00 17.22     0.034 A 
HETATM   53  C48 BE5 A 501      29.851  -8.646  10.306  1.00 15.28     0.068 C 
HETATM   54  C44 BE5 A 501      28.258  -7.966  13.870  1.00 17.66     0.005 A 
HETATM   55  C43 BE5 A 501      28.252  -6.500  13.818  1.00 18.87     0.005 A 
HETATM   56  C45 BE5 A 501      29.678  -7.496   9.298  1.00 13.23     0.149 C 
BRANCH  56  57
HETATM   57  O46 BE5 A 501      28.357  -7.438   8.700  1.00 13.13    -0.393 OA
HETATM   58  H46 BE5 A 501      27.754  -7.123   9.363  1.00  0.00     0.210 HD
ENDBRANCH  56  57
ENDBRANCH  46  48
ENDBRANCH  11  44
ENDBRANCH  10  11
ENDBRANCH   9  10
ENDBRANCH   1   9
TORSDOF 17
ENDMDL
MODEL 12
REMARK VINA RESULT:      -6.9      1.975      2.943
REMARK  17 active torsions:
REMARK  status: ('A' for Active; 'I' for Inactive)
REMARK    1  A    between atoms: C01_1  and  C23_41 
REMARK    2  A    between atoms: C07_12  and  C13_24 
REMARK    3  A    between atoms: C13_24  and  O14_27 
REMARK    4  A    between atoms: O14_27  and  C15_28 
REMARK    5  A    between atoms: C15_28  and  C16_30 
REMARK    6  A    between atoms: C15_28  and  C26_48 
REMARK    7  A    between atoms: C16_30  and  C17_32 
REMARK    8  A    between atoms: C16_30  and  O25_46 
REMARK    9  A    between atoms: C17_32  and  C18_34 
REMARK   10  A    between atoms: C17_32  and  O24_44 
REMARK   11  A    between atoms: C18_34  and  C19_36 
REMARK   12  A    between atoms: C18_34  and  O22_40 
REMARK       I    between atoms: C19_36  and  N21_38 
REMARK   13  A    between atoms: N21_38  and  C39_75 
REMARK   14  A    between atoms: O22_40  and  C23_41 
REMARK       I    between atoms: C26_48  and  N28_50 
REMARK   15  A    between atoms: N28_50  and  C29_52 
REMARK   16  A    between atoms: C35_65  and  O36_67 
REMARK   17  A    between atoms: C45_88  and  O46_90 
ROOT
HETATM    1  C01 BE5 A 501      29.539  -0.183   6.303  1.00 24.49     0.003 A 
HETATM    2  C02 BE5 A 501      29.985  -0.277   4.901  1.00 24.30    -0.014 A 
HETATM    3  C03 BE5 A 501      30.727   0.787   4.251  1.00 26.88     0.035 A 
HETATM    4  C04 BE5 A 501      31.067   2.014   4.987  1.00 26.55     0.077 A 
HETATM    5  C05 BE5 A 501      30.640   2.146   6.398  1.00 25.99     0.133 A 
HETATM    6  C06 BE5 A 501      29.893   1.070   7.036  1.00 25.99     0.158 A 
HETATM    7  F50 BE5 A 501      30.968   3.358   7.157  1.00 29.63    -0.208 F 
HETATM    8  F51 BE5 A 501      29.441   1.165   8.484  1.00 27.35    -0.203 F 
ENDROOT
BRANCH   1   9
HETATM    9  C23 BE5 A 501      28.764  -1.379   6.875  1.00 23.01     0.210 C 
BRANCH   9  10
HETATM   10  O22 BE5 A 501      29.390  -1.793   8.131  1.00 22.02    -0.369 OA
BRANCH  10  11
HETATM   11  C18 BE5 A 501      28.576  -2.451   9.196  1.00 18.95     0.244 C 
BRANCH  11  12
HETATM   12  C17 BE5 A 501      27.974  -1.405  10.232  1.00 20.08     0.188 C 
BRANCH  12  13
HETATM   13  C16 BE5 A 501      27.245  -2.157  11.244  1.00 20.53     0.188 C 
BRANCH  13  14
HETATM   14  C15 BE5 A 501      25.854  -1.620  11.438  1.00 18.51     0.244 C 
BRANCH  14  15
HETATM   15  O14 BE5 A 501      24.834  -2.705  11.798  1.00 19.29    -0.369 OA
BRANCH  15  16
HETATM   16  C13 BE5 A 501      23.890  -3.197  10.792  1.00 21.08     0.206 C 
BRANCH  16  17
HETATM   17  C07 BE5 A 501      24.102  -4.687  10.551  1.00 21.04    -0.015 A 
HETATM   18  C08 BE5 A 501      23.105  -5.547   9.885  1.00 23.02     0.155 A 
HETATM   19  C09 BE5 A 501      23.394  -6.998   9.677  1.00 21.73     0.132 A 
HETATM   20  F52 BE5 A 501      21.816  -4.968   9.416  1.00 24.30    -0.203 F 
HETATM   21  C10 BE5 A 501      24.698  -7.568  10.154  1.00 24.35     0.073 A 
HETATM   22  F49 BE5 A 501      22.410  -7.845   9.015  1.00 27.68    -0.208 F 
HETATM   23  C11 BE5 A 501      25.677  -6.659  10.825  1.00 23.62     0.011 A 
HETATM   24  C12 BE5 A 501      25.367  -5.265  11.005  1.00 22.67     0.040 A 
ENDBRANCH  16  17
ENDBRANCH  15  16
ENDBRANCH  14  15
BRANCH  14  25
HETATM   25  C26 BE5 A 501      25.970  -0.620  12.518  1.00 16.79     0.250 C 
HETATM   26  O27 BE5 A 501      25.687  -0.944  13.700  1.00 20.11    -0.271 OA
HETATM   27  N28 BE5 A 501      26.388   0.634  12.209  1.00 15.99    -0.348 N 
HETATM   28  H28 BE5 A 501      26.612   0.861  11.240  1.00  0.00     0.163 HD
BRANCH  27  29
HETATM   29  C29 BE5 A 501      26.524   1.656  13.226  1.00 16.00     0.143 C 
HETATM   30  C30 BE5 A 501      27.390   2.763  12.717  1.00 16.23    -0.052 A 
HETATM   31  C31 BE5 A 501      26.961   4.034  13.307  1.00 17.03    -0.073 A 
HETATM   32  C32 BE5 A 501      28.527   2.724  11.765  1.00 16.86     0.036 A 
HETATM   33  C37 BE5 A 501      27.641   5.299  12.977  1.00 17.71     0.034 A 
HETATM   34  C38 BE5 A 501      25.817   3.782  14.210  1.00 16.65     0.068 C 
HETATM   35  C34 BE5 A 501      28.771   5.261  12.029  1.00 19.35     0.005 A 
HETATM   36  C33 BE5 A 501      29.228   4.000  11.417  1.00 18.24     0.005 A 
HETATM   37  C35 BE5 A 501      25.253   2.459  13.613  1.00 16.83     0.149 C 
BRANCH  37  38
HETATM   38  O36 BE5 A 501      24.475   2.631  12.402  1.00 14.03    -0.393 OA
HETATM   39  H36 BE5 A 501      23.618   2.256  12.568  1.00  0.00     0.210 HD
ENDBRANCH  37  38
ENDBRANCH  27  29
ENDBRANCH  14  25
ENDBRANCH  13  14
BRANCH  13  40
HETATM   40  O25 BE5 A 501      27.959  -2.036  12.543  1.00 21.98    -0.390 OA
HETATM   41  H25 BE5 A 501      27.466  -2.526  13.189  1.00  0.00     0.210 HD
ENDBRANCH  13  40
ENDBRANCH  12  13
BRANCH  12  42
HETATM   42  O24 BE5 A 501      29.031  -0.642  10.873  1.00 17.11    -0.390 OA
HETATM   43  H24 BE5 A 501      28.805   0.281  10.854  1.00  0.00     0.210 HD
ENDBRANCH  12  42
ENDBRANCH  11  12
BRANCH  11  44
HETATM   44  C19 BE5 A 501      29.433  -3.500   9.885  1.00 17.37     0.250 C 
HETATM   45  O20 BE5 A 501      30.417  -3.169  10.593  1.00 18.21    -0.271 OA
HETATM   46  N21 BE5 A 501      29.110  -4.812   9.690  1.00 14.53    -0.348 N 
HETATM   47  H21 BE5 A 501      28.306  -5.030   9.101  1.00  0.00     0.163 HD
BRANCH  46  48
HETATM   48  C39 BE5 A 501      29.849  -5.908  10.272  1.00 14.05     0.143 C 
HETATM   49  C40 BE5 A 501      29.226  -6.383  11.578  1.00 15.79    -0.052 A 
HETATM   50  C41 BE5 A 501      29.285  -7.833  11.651  1.00 16.99    -0.073 A 
HETATM   51  C42 BE5 A 501      28.622  -5.608  12.673  1.00 16.33     0.036 A 
HETATM   52  C47 BE5 A 501      28.748  -8.576  12.809  1.00 17.22     0.034 A 
HETATM   53  C48 BE5 A 501      29.947  -8.345  10.406  1.00 15.28     0.068 C 
HETATM   54  C44 BE5 A 501      28.148  -7.797  13.894  1.00 17.66     0.005 A 
HETATM   55  C43 BE5 A 501      28.070  -6.333  13.858  1.00 18.87     0.005 A 
HETATM   56  C45 BE5 A 501      29.765  -7.192   9.404  1.00 13.23     0.149 C 
BRANCH  56  57
HETATM   57  O46 BE5 A 501      28.474  -7.193   8.742  1.00 13.13    -0.393 OA
HETATM   58  H46 BE5 A 501      28.559  -6.687   7.943  1.00  0.00     0.210 HD
ENDBRANCH  56  57
ENDBRANCH  46  48
ENDBRANCH  11  44
ENDBRANCH  10  11
ENDBRANCH   9  10
ENDBRANCH   1   9
TORSDOF 17
ENDMDL
MODEL 13
REMARK VINA RESULT:      -6.9      3.599      8.974
REMARK  17 active torsions:
REMARK  status: ('A' for Active; 'I' for Inactive)
REMARK    1  A    between atoms: C01_1  and  C23_41 
REMARK    2  A    between atoms: C07_12  and  C13_24 
REMARK    3  A    between atoms: C13_24  and  O14_27 
REMARK    4  A    between atoms: O14_27  and  C15_28 
REMARK    5  A    between atoms: C15_28  and  C16_30 
REMARK    6  A    between atoms: C15_28  and  C26_48 
REMARK    7  A    between atoms: C16_30  and  C17_32 
REMARK    8  A    between atoms: C16_30  and  O25_46 
REMARK    9  A    between atoms: C17_32  and  C18_34 
REMARK   10  A    between atoms: C17_32  and  O24_44 
REMARK   11  A    between atoms: C18_34  and  C19_36 
REMARK   12  A    between atoms: C18_34  and  O22_40 
REMARK       I    between atoms: C19_36  and  N21_38 
REMARK   13  A    between atoms: N21_38  and  C39_75 
REMARK   14  A    between atoms: O22_40  and  C23_41 
REMARK       I    between atoms: C26_48  and  N28_50 
REMARK   15  A    between atoms: N28_50  and  C29_52 
REMARK   16  A    between atoms: C35_65  and  O36_67 
REMARK   17  A    between atoms: C45_88  and  O46_90 
ROOT
HETATM    1  C01 BE5 A 501      24.655  -6.237  10.548  1.00 24.49     0.003 A 
HETATM    2  C02 BE5 A 501      24.319  -4.869  10.984  1.00 24.30    -0.014 A 
HETATM    3  C03 BE5 A 501      23.085  -4.213  10.594  1.00 26.88     0.035 A 
HETATM    4  C04 BE5 A 501      22.111  -4.908   9.737  1.00 26.55     0.077 A 
HETATM    5  C05 BE5 A 501      22.411  -6.283   9.281  1.00 25.99     0.133 A 
HETATM    6  C06 BE5 A 501      23.655  -6.928   9.679  1.00 25.99     0.158 A 
HETATM    7  F50 BE5 A 501      21.457  -7.000   8.427  1.00 29.63    -0.208 F 
HETATM    8  F51 BE5 A 501      23.998  -8.341   9.235  1.00 27.35    -0.203 F 
ENDROOT
BRANCH   1   9
HETATM    9  C23 BE5 A 501      25.991  -6.820  11.032  1.00 23.01     0.210 C 
BRANCH   9  10
HETATM   10  O22 BE5 A 501      27.086  -6.098  10.386  1.00 22.02    -0.369 OA
BRANCH  10  11
HETATM   11  C18 BE5 A 501      27.925  -5.144  11.170  1.00 18.95     0.244 C 
BRANCH  11  12
HETATM   12  C17 BE5 A 501      27.626  -5.216  12.731  1.00 20.08     0.188 C 
BRANCH  12  13
HETATM   13  C16 BE5 A 501      28.907  -5.300  13.421  1.00 20.53     0.188 C 
BRANCH  13  14
HETATM   14  C15 BE5 A 501      28.742  -5.775  14.838  1.00 18.51     0.244 C 
BRANCH  14  15
HETATM   15  O14 BE5 A 501      27.348  -5.492  15.408  1.00 19.29    -0.369 OA
BRANCH  15  16
HETATM   16  C13 BE5 A 501      27.200  -4.841  16.712  1.00 21.08     0.206 C 
BRANCH  16  17
HETATM   17  C07 BE5 A 501      26.508  -3.492  16.554  1.00 21.04    -0.015 A 
HETATM   18  C08 BE5 A 501      25.139  -3.226  17.035  1.00 23.02     0.155 A 
HETATM   19  C09 BE5 A 501      24.535  -1.872  16.850  1.00 21.73     0.132 A 
HETATM   20  F52 BE5 A 501      24.363  -4.304  17.708  1.00 24.30    -0.203 F 
HETATM   21  C10 BE5 A 501      25.329  -0.795  16.171  1.00 24.35     0.073 A 
HETATM   22  F49 BE5 A 501      23.184  -1.609  17.330  1.00 27.68    -0.208 F 
HETATM   23  C11 BE5 A 501      26.712  -1.111  15.698  1.00 23.62     0.011 A 
HETATM   24  C12 BE5 A 501      27.263  -2.425  15.897  1.00 22.67     0.040 A 
ENDBRANCH  16  17
ENDBRANCH  15  16
ENDBRANCH  14  15
BRANCH  14  25
HETATM   25  C26 BE5 A 501      29.015  -7.225  14.797  1.00 16.79     0.250 C 
HETATM   26  O27 BE5 A 501      28.608  -7.963  15.731  1.00 20.11    -0.271 OA
HETATM   27  N28 BE5 A 501      29.700  -7.734  13.741  1.00 15.99    -0.348 N 
HETATM   28  H28 BE5 A 501      30.012  -7.107  13.000  1.00  0.00     0.163 HD
BRANCH  27  29
HETATM   29  C29 BE5 A 501      29.995  -9.149  13.644  1.00 16.00     0.143 C 
HETATM   30  C30 BE5 A 501      29.864  -9.596  12.223  1.00 16.23    -0.052 A 
HETATM   31  C31 BE5 A 501      30.813 -10.682  11.961  1.00 17.03    -0.073 A 
HETATM   32  C32 BE5 A 501      28.967  -9.107  11.149  1.00 16.86     0.036 A 
HETATM   33  C37 BE5 A 501      30.903 -11.314  10.633  1.00 17.71     0.034 A 
HETATM   34  C38 BE5 A 501      31.574 -10.965  13.198  1.00 16.65     0.068 C 
HETATM   35  C34 BE5 A 501      30.012 -10.827   9.563  1.00 19.35     0.005 A 
HETATM   36  C33 BE5 A 501      29.047  -9.737   9.793  1.00 18.24     0.005 A 
HETATM   37  C35 BE5 A 501      31.450  -9.601  13.941  1.00 16.83     0.149 C 
BRANCH  37  38
HETATM   38  O36 BE5 A 501      32.327  -8.563  13.440  1.00 14.03    -0.393 OA
HETATM   39  H36 BE5 A 501      32.009  -8.323  12.577  1.00  0.00     0.210 HD
ENDBRANCH  37  38
ENDBRANCH  27  29
ENDBRANCH  14  25
ENDBRANCH  13  14
BRANCH  13  40
HETATM   40  O25 BE5 A 501      29.518  -3.946  13.468  1.00 21.98    -0.390 OA
HETATM   41  H25 BE5 A 501      29.121  -3.427  12.779  1.00  0.00     0.210 HD
ENDBRANCH  13  40
ENDBRANCH  12  13
BRANCH  12  42
HETATM   42  O24 BE5 A 501      26.918  -4.030  13.180  1.00 17.11    -0.390 OA
HETATM   43  H24 BE5 A 501      26.118  -4.292  13.621  1.00  0.00     0.210 HD
ENDBRANCH  12  42
ENDBRANCH  11  12
BRANCH  11  44
HETATM   44  C19 BE5 A 501      27.713  -3.743  10.618  1.00 17.37     0.250 C 
HETATM   45  O20 BE5 A 501      27.001  -3.548   9.601  1.00 18.21    -0.271 OA
HETATM   46  N21 BE5 A 501      28.342  -2.710  11.251  1.00 14.53    -0.348 N 
HETATM   47  H21 BE5 A 501      28.914  -2.920  12.069  1.00  0.00     0.163 HD
BRANCH  46  48
HETATM   48  C39 BE5 A 501      28.239  -1.335  10.823  1.00 14.05     0.143 C 
HETATM   49  C40 BE5 A 501      27.090  -0.609  11.511  1.00 15.79    -0.052 A 
HETATM   50  C41 BE5 A 501      27.497   0.744  11.850  1.00 16.99    -0.073 A 
HETATM   51  C42 BE5 A 501      25.739  -1.084  11.845  1.00 16.33     0.036 A 
HETATM   52  C47 BE5 A 501      26.584   1.682  12.533  1.00 17.22     0.034 A 
HETATM   53  C48 BE5 A 501      28.911   0.944  11.393  1.00 15.28     0.068 C 
HETATM   54  C44 BE5 A 501      25.240   1.201  12.862  1.00 17.66     0.005 A 
HETATM   55  C43 BE5 A 501      24.792  -0.157  12.537  1.00 18.87     0.005 A 
HETATM   56  C45 BE5 A 501      29.458  -0.490  11.283  1.00 13.23     0.149 C 
BRANCH  56  57
HETATM   57  O46 BE5 A 501      29.921  -1.036  12.545  1.00 13.13    -0.393 OA
HETATM   58  H46 BE5 A 501      30.726  -1.510  12.376  1.00  0.00     0.210 HD
ENDBRANCH  56  57
ENDBRANCH  46  48
ENDBRANCH  11  44
ENDBRANCH  10  11
ENDBRANCH   9  10
ENDBRANCH   1   9
TORSDOF 17
ENDMDL
MODEL 14
REMARK VINA RESULT:      -6.8      2.675      6.808
REMARK  17 active torsions:
REMARK  status: ('A' for Active; 'I' for Inactive)
REMARK    1  A    between atoms: C01_1  and  C23_41 
REMARK    2  A    between atoms: C07_12  and  C13_24 
REMARK    3  A    between atoms: C13_24  and  O14_27 
REMARK    4  A    between atoms: O14_27  and  C15_28 
REMARK    5  A    between atoms: C15_28  and  C16_30 
REMARK    6  A    between atoms: C15_28  and  C26_48 
REMARK    7  A    between atoms: C16_30  and  C17_32 
REMARK    8  A    between atoms: C16_30  and  O25_46 
REMARK    9  A    between atoms: C17_32  and  C18_34 
REMARK   10  A    between atoms: C17_32  and  O24_44 
REMARK   11  A    between atoms: C18_34  and  C19_36 
REMARK   12  A    between atoms: C18_34  and  O22_40 
REMARK       I    between atoms: C19_36  and  N21_38 
REMARK   13  A    between atoms: N21_38  and  C39_75 
REMARK   14  A    between atoms: O22_40  and  C23_41 
REMARK       I    between atoms: C26_48  and  N28_50 
REMARK   15  A    between atoms: N28_50  and  C29_52 
REMARK   16  A    between atoms: C35_65  and  O36_67 
REMARK   17  A    between atoms: C45_88  and  O46_90 
ROOT
HETATM    1  C01 BE5 A 501      24.397  -4.928  10.972  1.00 24.49     0.003 A 
HETATM    2  C02 BE5 A 501      23.141  -4.266  10.575  1.00 24.30    -0.014 A 
HETATM    3  C03 BE5 A 501      22.122  -4.943   9.796  1.00 26.88     0.035 A 
HETATM    4  C04 BE5 A 501      22.312  -6.340   9.375  1.00 26.55     0.077 A 
HETATM    5  C05 BE5 A 501      23.559  -7.040   9.757  1.00 25.99     0.133 A 
HETATM    6  C06 BE5 A 501      24.574  -6.346  10.537  1.00 25.99     0.158 A 
HETATM    7  F50 BE5 A 501      23.774  -8.434   9.352  1.00 29.63    -0.208 F 
HETATM    8  F51 BE5 A 501      25.866  -7.032  10.953  1.00 27.35    -0.203 F 
ENDROOT
BRANCH   1   9
HETATM    9  C23 BE5 A 501      25.395  -4.103  11.799  1.00 23.01     0.210 C 
BRANCH   9  10
HETATM   10  O22 BE5 A 501      26.490  -3.673  10.930  1.00 22.02    -0.369 OA
BRANCH  10  11
HETATM   11  C18 BE5 A 501      27.678  -2.977  11.506  1.00 18.95     0.244 C 
BRANCH  11  12
HETATM   12  C17 BE5 A 501      28.030  -1.635  10.727  1.00 20.08     0.188 C 
BRANCH  12  13
HETATM   13  C16 BE5 A 501      28.545  -0.682  11.702  1.00 20.53     0.188 C 
BRANCH  13  14
HETATM   14  C15 BE5 A 501      28.188   0.732  11.336  1.00 18.51     0.244 C 
BRANCH  14  15
HETATM   15  O14 BE5 A 501      27.759   1.575  12.540  1.00 19.29    -0.369 OA
BRANCH  15  16
HETATM   16  C13 BE5 A 501      26.389   1.492  13.053  1.00 21.08     0.206 C 
BRANCH  16  17
HETATM   17  C07 BE5 A 501      26.282   0.391  14.102  1.00 21.04    -0.015 A 
HETATM   18  C08 BE5 A 501      25.512  -0.850  13.893  1.00 23.02     0.155 A 
HETATM   19  C09 BE5 A 501      25.465  -1.886  14.969  1.00 21.73     0.132 A 
HETATM   20  F52 BE5 A 501      24.786  -1.070  12.613  1.00 24.30    -0.203 F 
HETATM   21  C10 BE5 A 501      26.202  -1.651  16.254  1.00 24.35     0.073 A 
HETATM   22  F49 BE5 A 501      24.707  -3.113  14.760  1.00 27.68    -0.208 F 
HETATM   23  C11 BE5 A 501      26.969  -0.379  16.421  1.00 23.62     0.011 A 
HETATM   24  C12 BE5 A 501      26.995   0.597  15.362  1.00 22.67     0.040 A 
ENDBRANCH  16  17
ENDBRANCH  15  16
ENDBRANCH  14  15
BRANCH  14  25
HETATM   25  C26 BE5 A 501      29.399   1.288  10.701  1.00 16.79     0.250 C 
HETATM   26  O27 BE5 A 501      30.253   1.885  11.406  1.00 20.11    -0.271 OA
HETATM   27  N28 BE5 A 501      29.568   1.136   9.363  1.00 15.99    -0.348 N 
HETATM   28  H28 BE5 A 501      28.856   0.644   8.823  1.00  0.00     0.163 HD
BRANCH  27  29
HETATM   29  C29 BE5 A 501      30.737   1.657   8.685  1.00 16.00     0.143 C 
HETATM   30  C30 BE5 A 501      30.624   1.404   7.216  1.00 16.23    -0.052 A 
HETATM   31  C31 BE5 A 501      31.292   2.481   6.480  1.00 17.03    -0.073 A 
HETATM   32  C32 BE5 A 501      29.968   0.291   6.488  1.00 16.86     0.036 A 
HETATM   33  C37 BE5 A 501      31.332   2.490   5.007  1.00 17.71     0.034 A 
HETATM   34  C38 BE5 A 501      31.854   3.449   7.448  1.00 16.65     0.068 C 
HETATM   35  C34 BE5 A 501      30.679   1.383   4.281  1.00 19.35     0.005 A 
HETATM   36  C33 BE5 A 501      29.999   0.285   4.990  1.00 18.24     0.005 A 
HETATM   37  C35 BE5 A 501      30.940   3.196   8.684  1.00 16.83     0.149 C 
BRANCH  37  38
HETATM   38  O36 BE5 A 501      29.625   3.797   8.591  1.00 14.03    -0.393 OA
HETATM   39  H36 BE5 A 501      29.740   4.734   8.700  1.00  0.00     0.210 HD
ENDBRANCH  37  38
ENDBRANCH  27  29
ENDBRANCH  14  25
ENDBRANCH  13  14
BRANCH  13  40
HETATM   40  O25 BE5 A 501      30.029  -0.778  11.732  1.00 21.98    -0.390 OA
HETATM   41  H25 BE5 A 501      30.374   0.106  11.767  1.00  0.00     0.210 HD
ENDBRANCH  13  40
ENDBRANCH  12  13
BRANCH  12  42
HETATM   42  O24 BE5 A 501      29.042  -1.874   9.712  1.00 17.11    -0.390 OA
HETATM   43  H24 BE5 A 501      28.616  -2.012   8.874  1.00  0.00     0.210 HD
ENDBRANCH  12  42
ENDBRANCH  11  12
BRANCH  11  44
HETATM   44  C19 BE5 A 501      28.850  -3.945  11.523  1.00 17.37     0.250 C 
HETATM   45  O20 BE5 A 501      29.874  -3.710  12.212  1.00 18.21    -0.271 OA
HETATM   46  N21 BE5 A 501      28.759  -5.064  10.747  1.00 14.53    -0.348 N 
HETATM   47  H21 BE5 A 501      27.909  -5.207  10.201  1.00  0.00     0.163 HD
BRANCH  46  48
HETATM   48  C39 BE5 A 501      29.804  -6.057  10.658  1.00 14.05     0.143 C 
HETATM   49  C40 BE5 A 501      29.563  -7.223  11.607  1.00 15.79    -0.052 A 
HETATM   50  C41 BE5 A 501      29.926  -8.470  10.954  1.00 16.99    -0.073 A 
HETATM   51  C42 BE5 A 501      29.046  -7.228  12.984  1.00 16.33     0.036 A 
HETATM   52  C47 BE5 A 501      29.791  -9.772  11.638  1.00 17.22     0.034 A 
HETATM   53  C48 BE5 A 501      30.416  -8.158   9.572  1.00 15.28     0.068 C 
HETATM   54  C44 BE5 A 501      29.276  -9.768  13.008  1.00 17.66     0.005 A 
HETATM   55  C43 BE5 A 501      28.899  -8.532  13.701  1.00 18.87     0.005 A 
HETATM   56  C45 BE5 A 501      29.810  -6.774   9.281  1.00 13.23     0.149 C 
BRANCH  56  57
HETATM   57  O46 BE5 A 501      28.439  -6.826   8.806  1.00 13.13    -0.393 OA
HETATM   58  H46 BE5 A 501      27.882  -6.492   9.498  1.00  0.00     0.210 HD
ENDBRANCH  56  57
ENDBRANCH  46  48
ENDBRANCH  11  44
ENDBRANCH  10  11
ENDBRANCH   9  10
ENDBRANCH   1   9
TORSDOF 17
ENDMDL
MODEL 15
REMARK VINA RESULT:      -6.8      3.234      6.629
REMARK  17 active torsions:
REMARK  status: ('A' for Active; 'I' for Inactive)
REMARK    1  A    between atoms: C01_1  and  C23_41 
REMARK    2  A    between atoms: C07_12  and  C13_24 
REMARK    3  A    between atoms: C13_24  and  O14_27 
REMARK    4  A    between atoms: O14_27  and  C15_28 
REMARK    5  A    between atoms: C15_28  and  C16_30 
REMARK    6  A    between atoms: C15_28  and  C26_48 
REMARK    7  A    between atoms: C16_30  and  C17_32 
REMARK    8  A    between atoms: C16_30  and  O25_46 
REMARK    9  A    between atoms: C17_32  and  C18_34 
REMARK   10  A    between atoms: C17_32  and  O24_44 
REMARK   11  A    between atoms: C18_34  and  C19_36 
REMARK   12  A    between atoms: C18_34  and  O22_40 
REMARK       I    between atoms: C19_36  and  N21_38 
REMARK   13  A    between atoms: N21_38  and  C39_75 
REMARK   14  A    between atoms: O22_40  and  C23_41 
REMARK       I    between atoms: C26_48  and  N28_50 
REMARK   15  A    between atoms: N28_50  and  C29_52 
REMARK   16  A    between atoms: C35_65  and  O36_67 
REMARK   17  A    between atoms: C45_88  and  O46_90 
ROOT
HETATM    1  C01 BE5 A 501      24.768  -5.182  10.728  1.00 24.49     0.003 A 
HETATM    2  C02 BE5 A 501      25.046  -6.607  10.472  1.00 24.30    -0.014 A 
HETATM    3  C03 BE5 A 501      24.053  -7.500   9.905  1.00 26.88     0.035 A 
HETATM    4  C04 BE5 A 501      22.713  -7.000   9.560  1.00 26.55     0.077 A 
HETATM    5  C05 BE5 A 501      22.396  -5.575   9.800  1.00 25.99     0.133 A 
HETATM    6  C06 BE5 A 501      23.404  -4.691  10.371  1.00 25.99     0.158 A 
HETATM    7  F50 BE5 A 501      21.069  -5.048   9.463  1.00 29.63    -0.208 F 
HETATM    8  F51 BE5 A 501      23.119  -3.220  10.629  1.00 27.35    -0.203 F 
ENDROOT
BRANCH   1   9
HETATM    9  C23 BE5 A 501      25.906  -4.342  11.328  1.00 23.01     0.210 C 
BRANCH   9  10
HETATM   10  O22 BE5 A 501      26.785  -3.894  10.248  1.00 22.02    -0.369 OA
BRANCH  10  11
HETATM   11  C18 BE5 A 501      28.267  -4.013  10.386  1.00 18.95     0.244 C 
BRANCH  11  12
HETATM   12  C17 BE5 A 501      29.045  -3.269   9.215  1.00 20.08     0.188 C 
BRANCH  12  13
HETATM   13  C16 BE5 A 501      30.402  -3.013   9.681  1.00 20.53     0.188 C 
BRANCH  13  14
HETATM   14  C15 BE5 A 501      30.451  -1.843  10.625  1.00 18.51     0.244 C 
BRANCH  14  15
HETATM   15  O14 BE5 A 501      31.071  -2.191  11.981  1.00 19.29    -0.369 OA
BRANCH  15  16
HETATM   16  C13 BE5 A 501      30.507  -1.641  13.216  1.00 21.08     0.206 C 
BRANCH  16  17
HETATM   17  C07 BE5 A 501      29.746  -2.721  13.976  1.00 21.04    -0.015 A 
HETATM   18  C08 BE5 A 501      28.281  -2.882  13.898  1.00 23.02     0.155 A 
HETATM   19  C09 BE5 A 501      27.610  -3.974  14.667  1.00 21.73     0.132 A 
HETATM   20  F52 BE5 A 501      27.475  -1.962  13.050  1.00 24.30    -0.203 F 
HETATM   21  C10 BE5 A 501      28.436  -4.894  15.516  1.00 24.35     0.073 A 
HETATM   22  F49 BE5 A 501      26.164  -4.134  14.585  1.00 27.68    -0.208 F 
HETATM   23  C11 BE5 A 501      29.916  -4.693  15.566  1.00 23.62     0.011 A 
HETATM   24  C12 BE5 A 501      30.530  -3.633  14.809  1.00 22.67     0.040 A 
ENDBRANCH  16  17
ENDBRANCH  15  16
ENDBRANCH  14  15
BRANCH  14  25
HETATM   25  C26 BE5 A 501      31.244  -0.813   9.926  1.00 16.79     0.250 C 
HETATM   26  O27 BE5 A 501      32.491  -0.774  10.081  1.00 20.11    -0.271 OA
HETATM   27  N28 BE5 A 501      30.604   0.073   9.120  1.00 15.99    -0.348 N 
HETATM   28  H28 BE5 A 501      29.591   0.011   9.015  1.00  0.00     0.163 HD
BRANCH  27  29
HETATM   29  C29 BE5 A 501      31.328   1.104   8.406  1.00 16.00     0.143 C 
HETATM   30  C30 BE5 A 501      31.087   0.967   6.937  1.00 16.23    -0.052 A 
HETATM   31  C31 BE5 A 501      31.125   2.289   6.307  1.00 17.03    -0.073 A 
HETATM   32  C32 BE5 A 501      30.832  -0.246   6.123  1.00 16.86     0.036 A 
HETATM   33  C37 BE5 A 501      30.914   2.452   4.858  1.00 17.71     0.034 A 
HETATM   34  C38 BE5 A 501      31.395   3.308   7.345  1.00 16.65     0.068 C 
HETATM   35  C34 BE5 A 501      30.660   1.246   4.047  1.00 19.35     0.005 A 
HETATM   36  C33 BE5 A 501      30.614  -0.098   4.648  1.00 18.24     0.005 A 
HETATM   37  C35 BE5 A 501      30.882   2.576   8.620  1.00 16.83     0.149 C 
BRANCH  37  38
HETATM   38  O36 BE5 A 501      29.441   2.565   8.768  1.00 14.03    -0.393 OA
HETATM   39  H36 BE5 A 501      29.237   3.077   9.541  1.00  0.00     0.210 HD
ENDBRANCH  37  38
ENDBRANCH  27  29
ENDBRANCH  14  25
ENDBRANCH  13  14
BRANCH  13  40
HETATM   40  O25 BE5 A 501      31.260  -2.686   8.512  1.00 21.98    -0.390 OA
HETATM   41  H25 BE5 A 501      30.881  -1.929   8.081  1.00  0.00     0.210 HD
ENDBRANCH  13  40
ENDBRANCH  12  13
BRANCH  12  42
HETATM   42  O24 BE5 A 501      29.099  -4.094   8.020  1.00 17.11    -0.390 OA
HETATM   43  H24 BE5 A 501      29.904  -4.598   8.024  1.00  0.00     0.210 HD
ENDBRANCH  12  42
ENDBRANCH  11  12
BRANCH  11  44
HETATM   44  C19 BE5 A 501      28.632  -5.486  10.461  1.00 17.37     0.250 C 
HETATM   45  O20 BE5 A 501      28.403  -6.260   9.497  1.00 18.21    -0.271 OA
HETATM   46  N21 BE5 A 501      29.195  -5.943  11.618  1.00 14.53    -0.348 N 
HETATM   47  H21 BE5 A 501      29.356  -5.277  12.373  1.00  0.00     0.163 HD
BRANCH  46  48
HETATM   48  C39 BE5 A 501      29.576  -7.320  11.828  1.00 14.05     0.143 C 
HETATM   49  C40 BE5 A 501      30.624  -7.460  12.923  1.00 15.79    -0.052 A 
HETATM   50  C41 BE5 A 501      30.335  -8.632  13.732  1.00 16.99    -0.073 A 
HETATM   51  C42 BE5 A 501      31.788  -6.614  13.230  1.00 16.33     0.036 A 
HETATM   52  C47 BE5 A 501      31.186  -9.015  14.877  1.00 17.22     0.034 A 
HETATM   53  C48 BE5 A 501      29.103  -9.291  13.190  1.00 15.28     0.068 C 
HETATM   54  C44 BE5 A 501      32.342  -8.167  15.175  1.00 17.66     0.005 A 
HETATM   55  C43 BE5 A 501      32.667  -6.977  14.383  1.00 18.87     0.005 A 
HETATM   56  C45 BE5 A 501      28.409  -8.164  12.406  1.00 13.23     0.149 C 
BRANCH  56  57
HETATM   57  O46 BE5 A 501      27.601  -7.289  13.235  1.00 13.13    -0.393 OA
HETATM   58  H46 BE5 A 501      27.900  -7.384  14.132  1.00  0.00     0.210 HD
ENDBRANCH  56  57
ENDBRANCH  46  48
ENDBRANCH  11  44
ENDBRANCH  10  11
ENDBRANCH   9  10
ENDBRANCH   1   9
TORSDOF 17
ENDMDL
MODEL 16
REMARK VINA RESULT:      -6.8      2.031      9.340
REMARK  17 active torsions:
REMARK  status: ('A' for Active; 'I' for Inactive)
REMARK    1  A    between atoms: C01_1  and  C23_41 
REMARK    2  A    between atoms: C07_12  and  C13_24 
REMARK    3  A    between atoms: C13_24  and  O14_27 
REMARK    4  A    between atoms: O14_27  and  C15_28 
REMARK    5  A    between atoms: C15_28  and  C16_30 
REMARK    6  A    between atoms: C15_28  and  C26_48 
REMARK    7  A    between atoms: C16_30  and  C17_32 
REMARK    8  A    between atoms: C16_30  and  O25_46 
REMARK    9  A    between atoms: C17_32  and  C18_34 
REMARK   10  A    between atoms: C17_32  and  O24_44 
REMARK   11  A    between atoms: C18_34  and  C19_36 
REMARK   12  A    between atoms: C18_34  and  O22_40 
REMARK       I    between atoms: C19_36  and  N21_38 
REMARK   13  A    between atoms: N21_38  and  C39_75 
REMARK   14  A    between atoms: O22_40  and  C23_41 
REMARK       I    between atoms: C26_48  and  N28_50 
REMARK   15  A    between atoms: N28_50  and  C29_52 
REMARK   16  A    between atoms: C35_65  and  O36_67 
REMARK   17  A    between atoms: C45_88  and  O46_90 
ROOT
HETATM    1  C01 BE5 A 501      24.957  -4.716  10.750  1.00 24.49     0.003 A 
HETATM    2  C02 BE5 A 501      23.714  -3.955  10.526  1.00 24.30    -0.014 A 
HETATM    3  C03 BE5 A 501      22.485  -4.590  10.088  1.00 26.88     0.035 A 
HETATM    4  C04 BE5 A 501      22.439  -6.041   9.854  1.00 26.55     0.077 A 
HETATM    5  C05 BE5 A 501      23.666  -6.841  10.070  1.00 25.99     0.133 A 
HETATM    6  C06 BE5 A 501      24.893  -6.189  10.508  1.00 25.99     0.158 A 
HETATM    7  F50 BE5 A 501      23.648  -8.291   9.846  1.00 29.63    -0.208 F 
HETATM    8  F51 BE5 A 501      26.171  -6.976  10.745  1.00 27.35    -0.203 F 
ENDROOT
BRANCH   1   9
HETATM    9  C23 BE5 A 501      26.189  -3.927  11.216  1.00 23.01     0.210 C 
BRANCH   9  10
HETATM   10  O22 BE5 A 501      26.183  -2.614  10.572  1.00 22.02    -0.369 OA
BRANCH  10  11
HETATM   11  C18 BE5 A 501      27.405  -1.757  10.601  1.00 18.95     0.244 C 
BRANCH  11  12
HETATM   12  C17 BE5 A 501      28.716  -2.582  10.962  1.00 20.08     0.188 C 
BRANCH  12  13
HETATM   13  C16 BE5 A 501      29.665  -2.403   9.871  1.00 20.53     0.188 C 
BRANCH  13  14
HETATM   14  C15 BE5 A 501      29.324  -3.274   8.693  1.00 18.51     0.244 C 
BRANCH  14  15
HETATM   15  O14 BE5 A 501      29.778  -2.681   7.356  1.00 19.29    -0.369 OA
BRANCH  15  16
HETATM   16  C13 BE5 A 501      28.860  -1.866   6.557  1.00 21.08     0.206 C 
BRANCH  16  17
HETATM   17  C07 BE5 A 501      29.523  -0.549   6.170  1.00 21.04    -0.015 A 
HETATM   18  C08 BE5 A 501      29.633   0.599   7.090  1.00 23.02     0.155 A 
HETATM   19  C09 BE5 A 501      30.308   1.853   6.637  1.00 21.73     0.132 A 
HETATM   20  F52 BE5 A 501      29.078   0.506   8.468  1.00 24.30    -0.203 F 
HETATM   21  C10 BE5 A 501      30.864   1.932   5.246  1.00 24.35     0.073 A 
HETATM   22  F49 BE5 A 501      30.420   2.985   7.548  1.00 27.68    -0.208 F 
HETATM   23  C11 BE5 A 501      30.728   0.745   4.349  1.00 23.62     0.011 A 
HETATM   24  C12 BE5 A 501      30.075  -0.449   4.819  1.00 22.67     0.040 A 
ENDBRANCH  16  17
ENDBRANCH  15  16
ENDBRANCH  14  15
BRANCH  14  25
HETATM   25  C26 BE5 A 501      29.991  -4.564   8.958  1.00 16.79     0.250 C 
HETATM   26  O27 BE5 A 501      31.107  -4.808   8.430  1.00 20.11    -0.271 OA
HETATM   27  N28 BE5 A 501      29.384  -5.461   9.776  1.00 15.99    -0.348 N 
HETATM   28  H28 BE5 A 501      28.481  -5.229  10.188  1.00  0.00     0.163 HD
BRANCH  27  29
HETATM   29  C29 BE5 A 501      29.992  -6.742  10.074  1.00 16.00     0.143 C 
HETATM   30  C30 BE5 A 501      29.520  -7.226  11.408  1.00 16.23    -0.052 A 
HETATM   31  C31 BE5 A 501      29.464  -8.690  11.407  1.00 17.03    -0.073 A 
HETATM   32  C32 BE5 A 501      29.133  -6.461  12.617  1.00 16.86     0.036 A 
HETATM   33  C37 BE5 A 501      29.027  -9.440  12.597  1.00 17.71     0.034 A 
HETATM   34  C38 BE5 A 501      29.900  -9.187  10.083  1.00 16.65     0.068 C 
HETATM   35  C34 BE5 A 501      28.641  -8.679  13.802  1.00 19.35     0.005 A 
HETATM   36  C33 BE5 A 501      28.685  -7.207  13.836  1.00 18.24     0.005 A 
HETATM   37  C35 BE5 A 501      29.593  -7.951   9.186  1.00 16.83     0.149 C 
BRANCH  37  38
HETATM   38  O36 BE5 A 501      28.193  -7.787   8.850  1.00 14.03    -0.393 OA
HETATM   39  H36 BE5 A 501      27.962  -8.501   8.267  1.00  0.00     0.210 HD
ENDBRANCH  37  38
ENDBRANCH  27  29
ENDBRANCH  14  25
ENDBRANCH  13  14
BRANCH  13  40
HETATM   40  O25 BE5 A 501      31.020  -2.791  10.341  1.00 21.98    -0.390 OA
HETATM   41  H25 BE5 A 501      31.606  -2.066  10.162  1.00  0.00     0.210 HD
ENDBRANCH  13  40
ENDBRANCH  12  13
BRANCH  12  42
HETATM   42  O24 BE5 A 501      29.311  -2.099  12.196  1.00 17.11    -0.390 OA
HETATM   43  H24 BE5 A 501      28.795  -2.405  12.933  1.00  0.00     0.210 HD
ENDBRANCH  12  42
ENDBRANCH  11  12
BRANCH  11  44
HETATM   44  C19 BE5 A 501      27.173  -0.611  11.572  1.00 17.37     0.250 C 
HETATM   45  O20 BE5 A 501      26.309  -0.697  12.481  1.00 18.21    -0.271 OA
HETATM   46  N21 BE5 A 501      27.918   0.521  11.408  1.00 14.53    -0.348 N 
HETATM   47  H21 BE5 A 501      28.602   0.545  10.652  1.00  0.00     0.163 HD
BRANCH  46  48
HETATM   48  C39 BE5 A 501      27.788   1.687  12.250  1.00 14.05     0.143 C 
HETATM   49  C40 BE5 A 501      29.132   2.146  12.799  1.00 15.79    -0.052 A 
HETATM   50  C41 BE5 A 501      29.198   3.598  12.787  1.00 16.99    -0.073 A 
HETATM   51  C42 BE5 A 501      30.271   1.355  13.290  1.00 16.33     0.036 A 
HETATM   52  C47 BE5 A 501      30.393   4.325  13.260  1.00 17.22     0.034 A 
HETATM   53  C48 BE5 A 501      27.907   4.128  12.239  1.00 15.28     0.068 C 
HETATM   54  C44 BE5 A 501      31.522   3.530  13.748  1.00 17.66     0.005 A 
HETATM   55  C43 BE5 A 501      31.494   2.064  13.776  1.00 18.87     0.005 A 
HETATM   56  C45 BE5 A 501      27.339   2.937  11.446  1.00 13.23     0.149 C 
BRANCH  56  57
HETATM   57  O46 BE5 A 501      27.882   2.817  10.106  1.00 13.13    -0.393 OA
HETATM   58  H46 BE5 A 501      27.986   1.892   9.919  1.00  0.00     0.210 HD
ENDBRANCH  56  57
ENDBRANCH  46  48
ENDBRANCH  11  44
ENDBRANCH  10  11
ENDBRANCH   9  10
ENDBRANCH   1   9
TORSDOF 17
ENDMDL
MODEL 17
REMARK VINA RESULT:      -6.8      3.097      6.403
REMARK  17 active torsions:
REMARK  status: ('A' for Active; 'I' for Inactive)
REMARK    1  A    between atoms: C01_1  and  C23_41 
REMARK    2  A    between atoms: C07_12  and  C13_24 
REMARK    3  A    between atoms: C13_24  and  O14_27 
REMARK    4  A    between atoms: O14_27  and  C15_28 
REMARK    5  A    between atoms: C15_28  and  C16_30 
REMARK    6  A    between atoms: C15_28  and  C26_48 
REMARK    7  A    between atoms: C16_30  and  C17_32 
REMARK    8  A    between atoms: C16_30  and  O25_46 
REMARK    9  A    between atoms: C17_32  and  C18_34 
REMARK   10  A    between atoms: C17_32  and  O24_44 
REMARK   11  A    between atoms: C18_34  and  C19_36 
REMARK   12  A    between atoms: C18_34  and  O22_40 
REMARK       I    between atoms: C19_36  and  N21_38 
REMARK   13  A    between atoms: N21_38  and  C39_75 
REMARK   14  A    between atoms: O22_40  and  C23_41 
REMARK       I    between atoms: C26_48  and  N28_50 
REMARK   15  A    between atoms: N28_50  and  C29_52 
REMARK   16  A    between atoms: C35_65  and  O36_67 
REMARK   17  A    between atoms: C45_88  and  O46_90 
ROOT
HETATM    1  C01 BE5 A 501      24.792  -5.298  10.887  1.00 24.49     0.003 A 
HETATM    2  C02 BE5 A 501      25.050  -6.705  10.528  1.00 24.30    -0.014 A 
HETATM    3  C03 BE5 A 501      24.074  -7.516   9.826  1.00 26.88     0.035 A 
HETATM    4  C04 BE5 A 501      22.773  -6.948   9.440  1.00 26.55     0.077 A 
HETATM    5  C05 BE5 A 501      22.478  -5.538   9.780  1.00 25.99     0.133 A 
HETATM    6  C06 BE5 A 501      23.467  -4.737  10.487  1.00 25.99     0.158 A 
HETATM    7  F50 BE5 A 501      21.189  -4.945   9.404  1.00 29.63    -0.208 F 
HETATM    8  F51 BE5 A 501      23.203  -3.284  10.850  1.00 27.35    -0.203 F 
ENDROOT
BRANCH   1   9
HETATM    9  C23 BE5 A 501      25.909  -4.546  11.627  1.00 23.01     0.210 C 
BRANCH   9  10
HETATM   10  O22 BE5 A 501      27.118  -5.368  11.621  1.00 22.02    -0.369 OA
BRANCH  10  11
HETATM   11  C18 BE5 A 501      28.432  -4.770  11.240  1.00 18.95     0.244 C 
BRANCH  11  12
HETATM   12  C17 BE5 A 501      28.266  -3.414  10.424  1.00 20.08     0.188 C 
BRANCH  12  13
HETATM   13  C16 BE5 A 501      29.385  -2.549  10.776  1.00 20.53     0.188 C 
BRANCH  13  14
HETATM   14  C15 BE5 A 501      28.944  -1.123  10.963  1.00 18.51     0.244 C 
BRANCH  14  15
HETATM   15  O14 BE5 A 501      28.715  -0.753  12.431  1.00 19.29    -0.369 OA
BRANCH  15  16
HETATM   16  C13 BE5 A 501      29.143  -1.658  13.500  1.00 21.08     0.206 C 
BRANCH  16  17
HETATM   17  C07 BE5 A 501      27.932  -2.314  14.154  1.00 21.04    -0.015 A 
HETATM   18  C08 BE5 A 501      28.028  -3.511  15.011  1.00 23.02     0.155 A 
HETATM   19  C09 BE5 A 501      26.793  -4.088  15.624  1.00 21.73     0.132 A 
HETATM   20  F52 BE5 A 501      29.352  -4.141  15.266  1.00 24.30    -0.203 F 
HETATM   21  C10 BE5 A 501      25.466  -3.442  15.359  1.00 24.35     0.073 A 
HETATM   22  F49 BE5 A 501      26.890  -5.268  16.473  1.00 27.68    -0.208 F 
HETATM   23  C11 BE5 A 501      25.417  -2.231  14.484  1.00 23.62     0.011 A 
HETATM   24  C12 BE5 A 501      26.627  -1.700  13.912  1.00 22.67     0.040 A 
ENDBRANCH  16  17
ENDBRANCH  15  16
ENDBRANCH  14  15
BRANCH  14  25
HETATM   25  C26 BE5 A 501      30.017  -0.302  10.368  1.00 16.79     0.250 C 
HETATM   26  O27 BE5 A 501      31.107  -0.164  10.979  1.00 20.11    -0.271 OA
HETATM   27  N28 BE5 A 501      29.803   0.283   9.162  1.00 15.99    -0.348 N 
HETATM   28  H28 BE5 A 501      28.907   0.147   8.693  1.00  0.00     0.163 HD
BRANCH  27  29
HETATM   29  C29 BE5 A 501      30.819   1.097   8.527  1.00 16.00     0.143 C 
HETATM   30  C30 BE5 A 501      30.651   1.049   7.042  1.00 16.23    -0.052 A 
HETATM   31  C31 BE5 A 501      31.077   2.323   6.459  1.00 17.03    -0.073 A 
HETATM   32  C32 BE5 A 501      30.143  -0.042   6.176  1.00 16.86     0.036 A 
HETATM   33  C37 BE5 A 501      31.015   2.557   5.005  1.00 17.71     0.034 A 
HETATM   34  C38 BE5 A 501      31.533   3.221   7.543  1.00 16.65     0.068 C 
HETATM   35  C34 BE5 A 501      30.509   1.473   4.142  1.00 19.35     0.005 A 
HETATM   36  C33 BE5 A 501      30.072   0.180   4.696  1.00 18.24     0.005 A 
HETATM   37  C35 BE5 A 501      30.761   2.631   8.760  1.00 16.83     0.149 C 
BRANCH  37  38
HETATM   38  O36 BE5 A 501      29.361   2.998   8.818  1.00 14.03    -0.393 OA
HETATM   39  H36 BE5 A 501      28.974   2.748   7.987  1.00  0.00     0.210 HD
ENDBRANCH  37  38
ENDBRANCH  27  29
ENDBRANCH  14  25
ENDBRANCH  13  14
BRANCH  13  40
HETATM   40  O25 BE5 A 501      30.378  -2.572   9.670  1.00 21.98    -0.390 OA
HETATM   41  H25 BE5 A 501      29.960  -2.206   8.900  1.00  0.00     0.210 HD
ENDBRANCH  13  40
ENDBRANCH  12  13
BRANCH  12  42
HETATM   42  O24 BE5 A 501      28.287  -3.663   8.993  1.00 17.11    -0.390 OA
HETATM   43  H24 BE5 A 501      28.878  -4.385   8.810  1.00  0.00     0.210 HD
ENDBRANCH  12  42
ENDBRANCH  11  12
BRANCH  11  44
HETATM   44  C19 BE5 A 501      29.231  -5.803  10.463  1.00 17.37     0.250 C 
HETATM   45  O20 BE5 A 501      30.275  -5.482   9.842  1.00 18.21    -0.271 OA
HETATM   46  N21 BE5 A 501      28.761  -7.085  10.444  1.00 14.53    -0.348 N 
HETATM   47  H21 BE5 A 501      27.906  -7.295  10.958  1.00  0.00     0.163 HD
BRANCH  46  48
HETATM   48  C39 BE5 A 501      29.413  -8.160   9.733  1.00 14.05     0.143 C 
HETATM   49  C40 BE5 A 501      30.181  -9.081  10.672  1.00 15.79    -0.052 A 
HETATM   50  C41 BE5 A 501      30.013 -10.462  10.251  1.00 16.99    -0.073 A 
HETATM   51  C42 BE5 A 501      30.994  -8.758  11.854  1.00 16.33     0.036 A 
HETATM   52  C47 BE5 A 501      30.644 -11.578  10.983  1.00 17.22     0.034 A 
HETATM   53  C48 BE5 A 501      29.143 -10.484   9.031  1.00 15.28     0.068 C 
HETATM   54  C44 BE5 A 501      31.452 -11.248  12.158  1.00 17.66     0.005 A 
HETATM   55  C43 BE5 A 501      31.645  -9.868  12.615  1.00 18.87     0.005 A 
HETATM   56  C45 BE5 A 501      28.391  -9.143   9.102  1.00 13.23     0.149 C 
BRANCH  56  57
HETATM   57  O46 BE5 A 501      27.222  -9.175   9.961  1.00 13.13    -0.393 OA
HETATM   58  H46 BE5 A 501      27.086 -10.076  10.229  1.00  0.00     0.210 HD
ENDBRANCH  56  57
ENDBRANCH  46  48
ENDBRANCH  11  44
ENDBRANCH  10  11
ENDBRANCH   9  10
ENDBRANCH   1   9
TORSDOF 17
ENDMDL
MODEL 18
REMARK VINA RESULT:      -6.8      2.498      7.677
REMARK  17 active torsions:
REMARK  status: ('A' for Active; 'I' for Inactive)
REMARK    1  A    between atoms: C01_1  and  C23_41 
REMARK    2  A    between atoms: C07_12  and  C13_24 
REMARK    3  A    between atoms: C13_24  and  O14_27 
REMARK    4  A    between atoms: O14_27  and  C15_28 
REMARK    5  A    between atoms: C15_28  and  C16_30 
REMARK    6  A    between atoms: C15_28  and  C26_48 
REMARK    7  A    between atoms: C16_30  and  C17_32 
REMARK    8  A    between atoms: C16_30  and  O25_46 
REMARK    9  A    between atoms: C17_32  and  C18_34 
REMARK   10  A    between atoms: C17_32  and  O24_44 
REMARK   11  A    between atoms: C18_34  and  C19_36 
REMARK   12  A    between atoms: C18_34  and  O22_40 
REMARK       I    between atoms: C19_36  and  N21_38 
REMARK   13  A    between atoms: N21_38  and  C39_75 
REMARK   14  A    between atoms: O22_40  and  C23_41 
REMARK       I    between atoms: C26_48  and  N28_50 
REMARK   15  A    between atoms: N28_50  and  C29_52 
REMARK   16  A    between atoms: C35_65  and  O36_67 
REMARK   17  A    between atoms: C45_88  and  O46_90 
ROOT
HETATM    1  C01 BE5 A 501      25.378  -5.675  10.892  1.00 24.49     0.003 A 
HETATM    2  C02 BE5 A 501      25.043  -4.280  11.231  1.00 24.30    -0.014 A 
HETATM    3  C03 BE5 A 501      23.746  -3.702  10.934  1.00 26.88     0.035 A 
HETATM    4  C04 BE5 A 501      22.705  -4.506  10.275  1.00 26.55     0.077 A 
HETATM    5  C05 BE5 A 501      23.002  -5.912   9.922  1.00 25.99     0.133 A 
HETATM    6  C06 BE5 A 501      24.310  -6.478  10.225  1.00 25.99     0.158 A 
HETATM    7  F50 BE5 A 501      21.982  -6.739   9.267  1.00 29.63    -0.208 F 
HETATM    8  F51 BE5 A 501      24.653  -7.919   9.882  1.00 27.35    -0.203 F 
ENDROOT
BRANCH   1   9
HETATM    9  C23 BE5 A 501      26.784  -6.169  11.263  1.00 23.01     0.210 C 
BRANCH   9  10
HETATM   10  O22 BE5 A 501      27.698  -5.870  10.161  1.00 22.02    -0.369 OA
BRANCH  10  11
HETATM   11  C18 BE5 A 501      28.620  -4.698  10.244  1.00 18.95     0.244 C 
BRANCH  11  12
HETATM   12  C17 BE5 A 501      29.754  -4.740   9.128  1.00 20.08     0.188 C 
BRANCH  12  13
HETATM   13  C16 BE5 A 501      29.235  -4.061   7.948  1.00 20.53     0.188 C 
BRANCH  13  14
HETATM   14  C15 BE5 A 501      30.212  -3.048   7.419  1.00 18.51     0.244 C 
BRANCH  14  15
HETATM   15  O14 BE5 A 501      30.587  -3.283   5.952  1.00 19.29    -0.369 OA
BRANCH  15  16
HETATM   16  C13 BE5 A 501      31.934  -2.968   5.472  1.00 21.08     0.206 C 
BRANCH  16  17
HETATM   17  C07 BE5 A 501      31.863  -2.011   4.287  1.00 21.04    -0.015 A 
HETATM   18  C08 BE5 A 501      31.779  -2.467   2.886  1.00 23.02     0.155 A 
HETATM   19  C09 BE5 A 501      31.702  -1.464   1.781  1.00 21.73     0.132 A 
HETATM   20  F52 BE5 A 501      31.769  -3.923   2.576  1.00 24.30    -0.203 F 
HETATM   21  C10 BE5 A 501      31.713  -0.000   2.109  1.00 24.35     0.073 A 
HETATM   22  F49 BE5 A 501      31.616  -1.916   0.398  1.00 27.68    -0.208 F 
HETATM   23  C11 BE5 A 501      31.800   0.415   3.542  1.00 23.62     0.011 A 
HETATM   24  C12 BE5 A 501      31.869  -0.579   4.582  1.00 22.67     0.040 A 
ENDBRANCH  16  17
ENDBRANCH  15  16
ENDBRANCH  14  15
BRANCH  14  25
HETATM   25  C26 BE5 A 501      29.551  -1.740   7.596  1.00 16.79     0.250 C 
HETATM   26  O27 BE5 A 501      28.920  -1.226   6.637  1.00 20.11    -0.271 OA
HETATM   27  N28 BE5 A 501      29.634  -1.120   8.801  1.00 15.99    -0.348 N 
HETATM   28  H28 BE5 A 501      30.152  -1.568   9.557  1.00  0.00     0.163 HD
BRANCH  27  29
HETATM   29  C29 BE5 A 501      29.004   0.162   9.035  1.00 16.00     0.143 C 
HETATM   30  C30 BE5 A 501      28.131   0.083  10.246  1.00 16.23    -0.052 A 
HETATM   31  C31 BE5 A 501      28.107   1.383  10.921  1.00 17.03    -0.073 A 
HETATM   32  C32 BE5 A 501      27.362  -1.061  10.793  1.00 16.86     0.036 A 
HETATM   33  C37 BE5 A 501      27.325   1.592  12.152  1.00 17.71     0.034 A 
HETATM   34  C38 BE5 A 501      28.955   2.332  10.166  1.00 16.65     0.068 C 
HETATM   35  C34 BE5 A 501      26.560   0.455  12.698  1.00 19.35     0.005 A 
HETATM   36  C33 BE5 A 501      26.562  -0.866  12.044  1.00 18.24     0.005 A 
HETATM   37  C35 BE5 A 501      29.919   1.351   9.434  1.00 16.83     0.149 C 
BRANCH  37  38
HETATM   38  O36 BE5 A 501      30.974   0.813  10.268  1.00 14.03    -0.393 OA
HETATM   39  H36 BE5 A 501      31.048   1.382  11.025  1.00  0.00     0.210 HD
ENDBRANCH  37  38
ENDBRANCH  27  29
ENDBRANCH  14  25
ENDBRANCH  13  14
BRANCH  13  40
HETATM   40  O25 BE5 A 501      27.990  -3.337   8.317  1.00 21.98    -0.390 OA
HETATM   41  H25 BE5 A 501      27.938  -2.559   7.774  1.00  0.00     0.210 HD
ENDBRANCH  13  40
ENDBRANCH  12  13
BRANCH  12  42
HETATM   42  O24 BE5 A 501      30.954  -4.059   9.582  1.00 17.11    -0.390 OA
HETATM   43  H24 BE5 A 501      30.806  -3.121   9.563  1.00  0.00     0.210 HD
ENDBRANCH  12  42
ENDBRANCH  11  12
BRANCH  11  44
HETATM   44  C19 BE5 A 501      29.206  -4.638  11.644  1.00 17.37     0.250 C 
HETATM   45  O20 BE5 A 501      30.031  -5.500  12.039  1.00 18.21    -0.271 OA
HETATM   46  N21 BE5 A 501      28.789  -3.629  12.465  1.00 14.53    -0.348 N 
HETATM   47  H21 BE5 A 501      28.114  -2.957  12.100  1.00  0.00     0.163 HD
BRANCH  46  48
HETATM   48  C39 BE5 A 501      29.254  -3.464  13.821  1.00 14.05     0.143 C 
HETATM   49  C40 BE5 A 501      29.487  -2.000  14.169  1.00 15.79    -0.052 A 
HETATM   50  C41 BE5 A 501      29.035  -1.739  15.525  1.00 16.99    -0.073 A 
HETATM   51  C42 BE5 A 501      30.061  -0.916  13.356  1.00 16.33     0.036 A 
HETATM   52  C47 BE5 A 501      29.133  -0.397  16.132  1.00 17.22     0.034 A 
HETATM   53  C48 BE5 A 501      28.503  -3.017  16.103  1.00 15.28     0.068 C 
HETATM   54  C44 BE5 A 501      29.706   0.676  15.316  1.00 17.66     0.005 A 
HETATM   55  C43 BE5 A 501      30.172   0.453  13.944  1.00 18.87     0.005 A 
HETATM   56  C45 BE5 A 501      28.170  -3.860  14.860  1.00 13.23     0.149 C 
BRANCH  56  57
HETATM   57  O46 BE5 A 501      26.874  -3.558  14.281  1.00 13.13    -0.393 OA
HETATM   58  H46 BE5 A 501      26.601  -2.711  14.611  1.00  0.00     0.210 HD
ENDBRANCH  56  57
ENDBRANCH  46  48
ENDBRANCH  11  44
ENDBRANCH  10  11
ENDBRANCH   9  10
ENDBRANCH   1   9
TORSDOF 17
ENDMDL
MODEL 19
REMARK VINA RESULT:      -6.8      2.796      5.480
REMARK  17 active torsions:
REMARK  status: ('A' for Active; 'I' for Inactive)
REMARK    1  A    between atoms: C01_1  and  C23_41 
REMARK    2  A    between atoms: C07_12  and  C13_24 
REMARK    3  A    between atoms: C13_24  and  O14_27 
REMARK    4  A    between atoms: O14_27  and  C15_28 
REMARK    5  A    between atoms: C15_28  and  C16_30 
REMARK    6  A    between atoms: C15_28  and  C26_48 
REMARK    7  A    between atoms: C16_30  and  C17_32 
REMARK    8  A    between atoms: C16_30  and  O25_46 
REMARK    9  A    between atoms: C17_32  and  C18_34 
REMARK   10  A    between atoms: C17_32  and  O24_44 
REMARK   11  A    between atoms: C18_34  and  C19_36 
REMARK   12  A    between atoms: C18_34  and  O22_40 
REMARK       I    between atoms: C19_36  and  N21_38 
REMARK   13  A    between atoms: N21_38  and  C39_75 
REMARK   14  A    between atoms: O22_40  and  C23_41 
REMARK       I    between atoms: C26_48  and  N28_50 
REMARK   15  A    between atoms: N28_50  and  C29_52 
REMARK   16  A    between atoms: C35_65  and  O36_67 
REMARK   17  A    between atoms: C45_88  and  O46_90 
ROOT
HETATM    1  C01 BE5 A 501      31.061  -3.142   3.953  1.00 24.49     0.003 A 
HETATM    2  C02 BE5 A 501      31.961  -4.157   3.374  1.00 24.30    -0.014 A 
HETATM    3  C03 BE5 A 501      32.652  -3.951   2.115  1.00 26.88     0.035 A 
HETATM    4  C04 BE5 A 501      32.475  -2.698   1.365  1.00 26.55     0.077 A 
HETATM    5  C05 BE5 A 501      31.583  -1.653   1.915  1.00 25.99     0.133 A 
HETATM    6  C06 BE5 A 501      30.894  -1.875   3.179  1.00 25.99     0.158 A 
HETATM    7  F50 BE5 A 501      31.390  -0.392   1.189  1.00 29.63    -0.208 F 
HETATM    8  F51 BE5 A 501      29.973  -0.825   3.779  1.00 27.35    -0.203 F 
ENDROOT
BRANCH   1   9
HETATM    9  C23 BE5 A 501      30.393  -3.480   5.294  1.00 23.01     0.210 C 
BRANCH   9  10
HETATM   10  O22 BE5 A 501      30.988  -2.653   6.343  1.00 22.02    -0.369 OA
BRANCH  10  11
HETATM   11  C18 BE5 A 501      30.340  -2.558   7.684  1.00 18.95     0.244 C 
BRANCH  11  12
HETATM   12  C17 BE5 A 501      29.408  -3.809   7.997  1.00 20.08     0.188 C 
BRANCH  12  13
HETATM   13  C16 BE5 A 501      29.834  -4.368   9.273  1.00 20.53     0.188 C 
BRANCH  13  14
HETATM   14  C15 BE5 A 501      28.672  -4.571  10.205  1.00 18.51     0.244 C 
BRANCH  14  15
HETATM   15  O14 BE5 A 501      27.972  -5.919  10.008  1.00 19.29    -0.369 OA
BRANCH  15  16
HETATM   16  C13 BE5 A 501      27.110  -6.466  11.058  1.00 21.08     0.206 C 
BRANCH  16  17
HETATM   17  C07 BE5 A 501      25.643  -6.237  10.711  1.00 21.04    -0.015 A 
HETATM   18  C08 BE5 A 501      24.961  -4.943  10.904  1.00 23.02     0.155 A 
HETATM   19  C09 BE5 A 501      23.522  -4.797  10.529  1.00 21.73     0.132 A 
HETATM   20  F52 BE5 A 501      25.707  -3.784  11.467  1.00 24.30    -0.203 F 
HETATM   21  C10 BE5 A 501      22.784  -5.973   9.962  1.00 24.35     0.073 A 
HETATM   22  F49 BE5 A 501      22.851  -3.517  10.716  1.00 27.68    -0.208 F 
HETATM   23  C11 BE5 A 501      23.515  -7.265   9.785  1.00 23.62     0.011 A 
HETATM   24  C12 BE5 A 501      24.903  -7.369  10.154  1.00 22.67     0.040 A 
ENDBRANCH  16  17
ENDBRANCH  15  16
ENDBRANCH  14  15
BRANCH  14  25
HETATM   25  C26 BE5 A 501      29.237  -4.457  11.564  1.00 16.79     0.250 C 
HETATM   26  O27 BE5 A 501      30.115  -5.274  11.943  1.00 20.11    -0.271 OA
HETATM   27  N28 BE5 A 501      28.798  -3.463  12.376  1.00 15.99    -0.348 N 
HETATM   28  H28 BE5 A 501      28.087  -2.816  12.034  1.00  0.00     0.163 HD
BRANCH  27  29
HETATM   29  C29 BE5 A 501      29.317  -3.300  13.718  1.00 16.00     0.143 C 
HETATM   30  C30 BE5 A 501      29.737  -1.880  13.929  1.00 16.23    -0.052 A 
HETATM   31  C31 BE5 A 501      29.538  -1.513  15.333  1.00 17.03    -0.073 A 
HETATM   32  C32 BE5 A 501      30.278  -0.893  12.964  1.00 16.86     0.036 A 
HETATM   33  C37 BE5 A 501      29.867  -0.163  15.824  1.00 17.71     0.034 A 
HETATM   34  C38 BE5 A 501      28.992  -2.678  16.063  1.00 16.65     0.068 C 
HETATM   35  C34 BE5 A 501      30.404   0.821  14.864  1.00 19.35     0.005 A 
HETATM   36  C33 BE5 A 501      30.616   0.484  13.445  1.00 18.24     0.005 A 
HETATM   37  C35 BE5 A 501      28.324  -3.470  14.899  1.00 16.83     0.149 C 
BRANCH  37  38
HETATM   38  O36 BE5 A 501      27.051  -2.935  14.463  1.00 14.03    -0.393 OA
HETATM   39  H36 BE5 A 501      26.976  -2.062  14.829  1.00  0.00     0.210 HD
ENDBRANCH  37  38
ENDBRANCH  27  29
ENDBRANCH  14  25
ENDBRANCH  13  14
BRANCH  13  40
HETATM   40  O25 BE5 A 501      30.774  -3.418   9.925  1.00 21.98    -0.390 OA
HETATM   41  H25 BE5 A 501      31.657  -3.710   9.734  1.00  0.00     0.210 HD
ENDBRANCH  13  40
ENDBRANCH  12  13
BRANCH  12  42
HETATM   42  O24 BE5 A 501      28.015  -3.408   8.093  1.00 17.11    -0.390 OA
HETATM   43  H24 BE5 A 501      27.931  -2.727   8.751  1.00  0.00     0.210 HD
ENDBRANCH  12  42
ENDBRANCH  11  12
BRANCH  11  44
HETATM   44  C19 BE5 A 501      29.573  -1.248   7.763  1.00 17.37     0.250 C 
HETATM   45  O20 BE5 A 501      29.089  -0.718   6.732  1.00 18.21    -0.271 OA
HETATM   46  N21 BE5 A 501      29.450  -0.657   8.988  1.00 14.53    -0.348 N 
HETATM   47  H21 BE5 A 501      29.865  -1.124   9.794  1.00  0.00     0.163 HD
BRANCH  46  48
HETATM   48  C39 BE5 A 501      28.761   0.594   9.201  1.00 14.05     0.143 C 
HETATM   49  C40 BE5 A 501      28.015   0.613  10.529  1.00 15.79    -0.052 A 
HETATM   50  C41 BE5 A 501      28.151   1.921  11.149  1.00 16.99    -0.073 A 
HETATM   51  C42 BE5 A 501      27.247  -0.449  11.196  1.00 16.33     0.036 A 
HETATM   52  C47 BE5 A 501      27.533   2.229  12.454  1.00 17.22     0.034 A 
HETATM   53  C48 BE5 A 501      28.979   2.790  10.250  1.00 15.28     0.068 C 
HETATM   54  C44 BE5 A 501      26.769   1.166  13.111  1.00 17.66     0.005 A 
HETATM   55  C43 BE5 A 501      26.609  -0.165  12.518  1.00 18.87     0.005 A 
HETATM   56  C45 BE5 A 501      29.749   1.778   9.384  1.00 13.23     0.149 C 
BRANCH  56  57
HETATM   57  O46 BE5 A 501      30.946   1.258  10.018  1.00 13.13    -0.393 OA
HETATM   58  H46 BE5 A 501      30.676   0.605  10.652  1.00  0.00     0.210 HD
ENDBRANCH  56  57
ENDBRANCH  46  48
ENDBRANCH  11  44
ENDBRANCH  10  11
ENDBRANCH   9  10
ENDBRANCH   1   9
TORSDOF 17
ENDMDL
MODEL 20
REMARK VINA RESULT:      -6.7      3.033      7.096
REMARK  17 active torsions:
REMARK  status: ('A' for Active; 'I' for Inactive)
REMARK    1  A    between atoms: C01_1  and  C23_41 
REMARK    2  A    between atoms: C07_12  and  C13_24 
REMARK    3  A    between atoms: C13_24  and  O14_27 
REMARK    4  A    between atoms: O14_27  and  C15_28 
REMARK    5  A    between atoms: C15_28  and  C16_30 
REMARK    6  A    between atoms: C15_28  and  C26_48 
REMARK    7  A    between atoms: C16_30  and  C17_32 
REMARK    8  A    between atoms: C16_30  and  O25_46 
REMARK    9  A    between atoms: C17_32  and  C18_34 
REMARK   10  A    between atoms: C17_32  and  O24_44 
REMARK   11  A    between atoms: C18_34  and  C19_36 
REMARK   12  A    between atoms: C18_34  and  O22_40 
REMARK       I    between atoms: C19_36  and  N21_38 
REMARK   13  A    between atoms: N21_38  and  C39_75 
REMARK   14  A    between atoms: O22_40  and  C23_41 
REMARK       I    between atoms: C26_48  and  N28_50 
REMARK   15  A    between atoms: N28_50  and  C29_52 
REMARK   16  A    between atoms: C35_65  and  O36_67 
REMARK   17  A    between atoms: C45_88  and  O46_90 
ROOT
HETATM    1  C01 BE5 A 501      25.106  -6.334  10.624  1.00 24.49     0.003 A 
HETATM    2  C02 BE5 A 501      25.652  -5.129  11.277  1.00 24.30    -0.014 A 
HETATM    3  C03 BE5 A 501      24.877  -3.912  11.426  1.00 26.88     0.035 A 
HETATM    4  C04 BE5 A 501      23.495  -3.843  10.925  1.00 26.55     0.077 A 
HETATM    5  C05 BE5 A 501      22.911  -5.032  10.266  1.00 25.99     0.133 A 
HETATM    6  C06 BE5 A 501      23.703  -6.247  10.122  1.00 25.99     0.158 A 
HETATM    7  F50 BE5 A 501      21.535  -4.992   9.759  1.00 29.63    -0.208 F 
HETATM    8  F51 BE5 A 501      23.137  -7.491   9.455  1.00 27.35    -0.203 F 
ENDROOT
BRANCH   1   9
HETATM    9  C23 BE5 A 501      26.027  -7.560  10.532  1.00 23.01     0.210 C 
BRANCH   9  10
HETATM   10  O22 BE5 A 501      27.231  -7.310  11.325  1.00 22.02    -0.369 OA
BRANCH  10  11
HETATM   11  C18 BE5 A 501      28.384  -8.257  11.261  1.00 18.95     0.244 C 
BRANCH  11  12
HETATM   12  C17 BE5 A 501      29.306  -8.176  12.555  1.00 20.08     0.188 C 
BRANCH  12  13
HETATM   13  C16 BE5 A 501      28.884  -7.012  13.324  1.00 20.53     0.188 C 
BRANCH  13  14
HETATM   14  C15 BE5 A 501      29.945  -5.946  13.341  1.00 18.51     0.244 C 
BRANCH  14  15
HETATM   15  O14 BE5 A 501      29.848  -4.982  12.154  1.00 19.29    -0.369 OA
BRANCH  15  16
HETATM   16  C13 BE5 A 501      30.710  -3.800  12.088  1.00 21.08     0.206 C 
BRANCH  16  17
HETATM   17  C07 BE5 A 501      29.918  -2.596  11.590  1.00 21.04    -0.015 A 
HETATM   18  C08 BE5 A 501      30.554  -1.391  11.022  1.00 23.02     0.155 A 
HETATM   19  C09 BE5 A 501      29.706  -0.257  10.547  1.00 21.73     0.132 A 
HETATM   20  F52 BE5 A 501      32.037  -1.309  10.920  1.00 24.30    -0.203 F 
HETATM   21  C10 BE5 A 501      28.213  -0.354  10.656  1.00 24.35     0.073 A 
HETATM   22  F49 BE5 A 501      30.334   0.931   9.983  1.00 27.68    -0.208 F 
HETATM   23  C11 BE5 A 501      27.613  -1.593  11.239  1.00 23.62     0.011 A 
HETATM   24  C12 BE5 A 501      28.460  -2.668  11.684  1.00 22.67     0.040 A 
ENDBRANCH  16  17
ENDBRANCH  15  16
ENDBRANCH  14  15
BRANCH  14  25
HETATM   25  C26 BE5 A 501      29.762  -5.235  14.621  1.00 16.79     0.250 C 
HETATM   26  O27 BE5 A 501      30.706  -5.193  15.451  1.00 20.11    -0.271 OA
HETATM   27  N28 BE5 A 501      28.572  -4.632  14.873  1.00 15.99    -0.348 N 
HETATM   28  H28 BE5 A 501      27.830  -4.683  14.175  1.00  0.00     0.163 HD
BRANCH  27  29
HETATM   29  C29 BE5 A 501      28.335  -3.917  16.110  1.00 16.00     0.143 C 
HETATM   30  C30 BE5 A 501      27.087  -3.102  15.991  1.00 16.23    -0.052 A 
HETATM   31  C31 BE5 A 501      26.436  -3.008  17.299  1.00 17.03    -0.073 A 
HETATM   32  C32 BE5 A 501      26.489  -2.443  14.805  1.00 16.86     0.036 A 
HETATM   33  C37 BE5 A 501      25.177  -2.262  17.475  1.00 17.71     0.034 A 
HETATM   34  C38 BE5 A 501      27.242  -3.751  18.293  1.00 16.65     0.068 C 
HETATM   35  C34 BE5 A 501      24.580  -1.607  16.296  1.00 19.35     0.005 A 
HETATM   36  C33 BE5 A 501      25.209  -1.681  14.965  1.00 18.24     0.005 A 
HETATM   37  C35 BE5 A 501      27.995  -4.755  17.371  1.00 16.83     0.149 C 
BRANCH  37  38
HETATM   38  O36 BE5 A 501      27.196  -5.880  16.930  1.00 14.03    -0.393 OA
HETATM   39  H36 BE5 A 501      27.786  -6.488  16.498  1.00  0.00     0.210 HD
ENDBRANCH  37  38
ENDBRANCH  27  29
ENDBRANCH  14  25
ENDBRANCH  13  14
BRANCH  13  40
HETATM   40  O25 BE5 A 501      28.640  -7.427  14.731  1.00 21.98    -0.390 OA
HETATM   41  H25 BE5 A 501      27.984  -6.843  15.093  1.00  0.00     0.210 HD
ENDBRANCH  13  40
ENDBRANCH  12  13
BRANCH  12  42
HETATM   42  O24 BE5 A 501      29.159  -9.367  13.373  1.00 17.11    -0.390 OA
HETATM   43  H24 BE5 A 501      29.414  -9.166  14.266  1.00  0.00     0.210 HD
ENDBRANCH  12  42
ENDBRANCH  11  12
BRANCH  11  44
HETATM   44  C19 BE5 A 501      29.169  -7.983   9.989  1.00 17.37     0.250 C 
HETATM   45  O20 BE5 A 501      29.224  -8.833   9.066  1.00 18.21    -0.271 OA
HETATM   46  N21 BE5 A 501      29.830  -6.792   9.895  1.00 14.53    -0.348 N 
HETATM   47  H21 BE5 A 501      29.760  -6.137  10.674  1.00  0.00     0.163 HD
BRANCH  46  48
HETATM   48  C39 BE5 A 501      30.625  -6.412   8.751  1.00 14.05     0.143 C 
HETATM   49  C40 BE5 A 501      30.383  -4.963   8.347  1.00 15.79    -0.052 A 
HETATM   50  C41 BE5 A 501      31.641  -4.345   7.963  1.00 16.99    -0.073 A 
HETATM   51  C42 BE5 A 501      29.133  -4.188   8.312  1.00 16.33     0.036 A 
HETATM   52  C47 BE5 A 501      31.713  -2.936   7.528  1.00 17.22     0.034 A 
HETATM   53  C48 BE5 A 501      32.733  -5.364   8.097  1.00 15.28     0.068 C 
HETATM   54  C44 BE5 A 501      30.464  -2.172   7.495  1.00 17.66     0.005 A 
HETATM   55  C43 BE5 A 501      29.176  -2.759   7.875  1.00 18.87     0.005 A 
HETATM   56  C45 BE5 A 501      32.142  -6.394   9.076  1.00 13.23     0.149 C 
BRANCH  56  57
HETATM   57  O46 BE5 A 501      32.289  -6.022  10.471  1.00 13.13    -0.393 OA
HETATM   58  H46 BE5 A 501      31.716  -6.582  10.981  1.00  0.00     0.210 HD
ENDBRANCH  56  57
ENDBRANCH  46  48
ENDBRANCH  11  44
ENDBRANCH  10  11
ENDBRANCH   9  10
ENDBRANCH   1   9
TORSDOF 17
ENDMDL
